9

C          0.99080       -0.01426       -0.16964
H          0.45511        0.92547       -0.22748
H          0.46944       -0.90922       -0.49470
C          2.47362       -0.04790       -0.06540
C          3.00624        1.08247        0.74041
H          4.02508        1.02562        1.11080
H          2.53781        2.05880        0.71294
H          2.78102       -0.99312        0.39294
H          2.90335       -0.00394       -1.07007