10

C          0.98654       -0.18110       -0.04124
H          0.47817        0.49509       -0.71348
H          0.63751       -1.19129        0.11034
O          2.34365       -0.07653        0.03341
C          2.80186        1.27143        0.08054
C          2.37257        2.10299       -1.10987
O          1.68935        3.12271       -1.01861
H          2.48434        1.75074        1.01398
H          3.89779        1.24843        0.07939
H          2.68932        1.71870       -2.09248