12

C          1.11720       -0.13046       -0.19526
H          0.64195        0.47069       -0.96413
H          0.55306       -0.98219        0.15613
C          2.61123       -0.08893       -0.05411
O          2.91569        1.19128       -0.11648
C          3.10586       -0.61735        1.31190
C          2.67429       -2.04468        1.54727
O          3.43905       -2.99332        1.72882
H          2.98442       -0.79050       -0.81266
H          4.20319       -0.59101        1.36109
H          2.72600       -0.02385        2.15578
H          1.58626       -2.20631        1.60981