12

C          0.99769       -0.01557        0.34347
H          0.44200       -0.91548        0.10364
H          0.50071        0.77817        0.88712
C          2.46579        0.05965        0.06705
C          2.91722       -0.75221       -1.15043
O          2.53333       -0.13006       -2.38071
O          1.12813       -0.45272       -2.58590
H          2.74246        1.11069       -0.07087
H          2.98572       -0.31432        0.95565
H          4.01306       -0.78617       -1.15739
H          2.56333       -1.78913       -1.11682
H          0.95518        0.25215       -3.23954