8

C          1.09946       -0.10417       -0.11129
H          0.55282        0.61999       -0.71029
H          0.62081       -1.04843        0.10994
C          2.58080        0.04114       -0.00688
C          2.91771        1.45279       -0.21645
O          3.10161        2.58715       -0.47672
H          2.95097       -0.35628        0.94623
H          3.03253       -0.54844       -0.80909