7

C          1.22215       -0.29189       -0.00045
H          0.71513       -0.41180       -0.94736
H          0.71547       -0.45594        0.93854
C          2.67048       -0.07149       -0.03984
O          3.21737        0.42645       -1.01419
O          3.20256       -0.56452        1.11372
O          4.60541       -0.53758        1.00570