12

C          1.03462       -0.05945        0.18818
H          0.55938       -0.71693        0.90947
H          0.47049        0.81637       -0.09792
C          2.52866       -0.09021        0.04429
O          2.83312       -1.37148        0.00985
C          3.02328        0.53981       -1.27794
C          2.59172        1.98083       -1.40490
O          3.35648        2.94047       -1.51432
H          2.90185        0.55210        0.85364
H          4.12062        0.51726       -1.32897
H          2.64343        0.01170       -2.16420
H          1.50369        2.14672       -1.45506