9

C          0.98951        0.19720        0.15532
H          0.45382       -0.07986        1.05514
H          0.46816        0.81683       -0.56766
C          2.47233        0.11151        0.08710
C          3.00496       -1.04098        0.86095
H          4.02379       -1.36757        0.67721
H          2.53652       -1.35936        1.78431
H          2.77973        0.01571       -0.95901
H          2.90206        1.03622        0.48232