8

C          1.01003       -0.12664       -0.19933
H          0.47749        0.23762       -1.06884
H          0.49160       -0.80173        0.47133
C          2.48017        0.00248       -0.09387
O          2.87178        1.24876       -0.63389
H          2.79742       -0.03556        0.95201
H          2.97579       -0.80196       -0.64363
H          2.58055        1.26921       -1.56170