8

C          1.12054       -0.23098        0.03705
H          0.55466       -0.29575       -0.88567
H          0.65422       -0.55496        0.95956
C          2.60181       -0.05630       -0.03219
O          2.96259        0.86225       -1.06433
O          2.90933        0.14100       -2.27394
H          2.95705        0.36298        0.91375
H          3.10423       -1.01924       -0.17923