12

C          1.10133       -0.14381       -0.04499
H          0.60562        0.56565       -0.70339
H          0.61232       -1.09654        0.11807
C          2.59702       -0.04149        0.08630
O          3.04131        1.30119        0.25080
O          2.73377        1.97957       -0.94885
C          3.12442       -0.81154        1.28893
O          3.81121       -1.82638        1.18596
O          2.70906       -0.25028        2.47414
O          3.24062       -1.07877        3.55953
H          3.06029       -0.47209       -0.80897
H          2.84800       -0.57715        4.29509