7

O          1.16420        0.05740       -0.01028
C          2.41201       -0.05526       -0.12484
C          3.14635       -0.84236       -0.92520
O          4.51484       -0.86962       -0.95292
H          2.99623        0.59008        0.53138
H          2.70797       -1.53576       -1.63028
H          4.79476       -0.21752       -0.28983