9

O          1.05344        0.11741       -0.03625
C          2.38055        0.00133       -0.06360
C          2.96586        1.43762       -0.00194
O          2.48035        2.10134        1.16716
H          2.86044       -0.54484        0.76342
H          2.85330       -0.46162       -0.94266
H          4.05950        1.40825        0.04191
H          2.67142        2.03211       -0.87465
H          1.57009        1.72077        1.19127