8

O          1.01418        0.10516       -0.01726
O          2.41528        0.12379        0.08186
C          2.79895       -1.16243        0.52529
C          2.28963       -1.40096        1.92014
O          1.68450       -2.41565        2.26144
H          2.44362       -1.93993       -0.15809
H          3.89235       -1.19525        0.55556
H          2.56525       -0.63656        2.66566