13

O          0.94434       -0.02822        0.00041
C          2.27001        0.00420       -0.06707
C          2.80108       -1.42570       -0.38749
C          2.38185       -1.93991       -1.74415
C          3.23188       -2.27530       -2.72012
O          2.84126       -2.70821       -3.95697
H          2.74504        0.66205       -0.81322
H          2.81154        0.29796        0.84674
H          3.89849       -1.40002       -0.33084
H          2.47645       -2.13989        0.38209
H          1.30599       -1.99247       -1.88752
H          4.30699       -2.22136       -2.62631
H          1.86841       -2.65528       -3.97173