9

O          1.18345       -0.01041       -0.14412
C          2.44159       -0.06186       -0.08002
O          3.17586       -0.80044        0.63511
C          3.18821        0.89004       -0.98611
C          2.81216        0.59195       -2.39934
O          2.46694        1.45179       -3.21338
H          2.93793        1.92503       -0.74021
H          4.27066        0.75426       -0.88913
H          2.98196       -0.44568       -2.73413