9

O          0.89834       -0.05566        0.03710
O          2.30273        0.00321        0.10431
C          2.70726       -1.03568        0.99697
C          2.22049       -0.78680        2.38820
C          1.45667       -1.61644        3.02885
O          0.78607       -2.39291        3.60152
H          2.37669       -2.00710        0.60975
H          3.80245       -1.04296        1.00128
H          2.45977        0.16195        2.85299