9

O          1.00441       -0.04217        0.14965
C          2.33152        0.04751        0.07104
C          2.91683       -0.83684        1.20447
O          2.43133       -2.17403        1.06583
H          2.81141       -0.30856       -0.85388
H          2.80427        1.03199        0.20469
H          4.01047       -0.85547        1.15510
H          2.62239       -0.47164        2.19527
H          1.52106       -1.97264        0.74201