9

O          1.00054       -0.07395       -0.08339
O          2.40359        0.02955       -0.01518
C          2.82684        0.82486       -1.12094
O          2.36200        0.38231       -2.39315
C          2.37769        2.24974       -0.85691
O          3.15726        3.18224       -0.66014
H          3.92160        0.81390       -1.13791
H          2.70825       -0.51757       -2.51055
H          1.28654        2.41273       -0.84101