13

O          1.05446        0.01630        0.12991
C          2.38012       -0.00221        0.05737
C          2.91120       -1.30390        0.73032
C          2.49197       -2.56946        0.02090
C          3.34199       -3.45344       -0.51164
O          2.95138       -4.57973       -1.18147
H          2.85516        0.02267       -0.93706
H          2.92166        0.80994        0.56900
H          4.00861       -1.24783        0.75724
H          2.58656       -1.35690        1.77890
H          1.41610       -2.70184       -0.05522
H          4.41711       -3.35183       -0.47439
H          1.97852       -4.54865       -1.22678