10

O          1.02878       -0.09800       -0.02265
C          2.35072       -0.02457       -0.06765
C          2.89445       -1.43842       -0.37445
C          2.47746       -1.92268       -1.74438
O          3.27058       -2.31554       -2.60360
H          2.81702        0.63544       -0.81703
H          2.87548        0.28574        0.84971
H          3.99114       -1.42001       -0.34443
H          2.56090       -2.17487        0.36803
H          1.38970       -1.98332       -1.91930