7

O          0.96143        0.03155       -0.17360
C          2.29760       -0.05764       -0.10843
C          2.91101       -1.45356        0.33871
O          3.67135       -2.01431       -0.52244
O          2.71391       -1.82530        1.53907
H          2.84258        0.15891       -1.04425
H          2.81701        0.63398        0.57800