10

O          1.01979        0.01795       -0.07040
O          2.41983        0.13838        0.02572
C          2.75672       -0.16261        1.38005
C          2.29495        0.95309        2.31212
O          0.87627        1.01925        2.41287
H          2.33434       -1.13415        1.66099
H          3.84782       -0.23834        1.42301
H          2.68290        0.78143        3.32097
H          2.64866        1.92628        1.95940
H          0.52334        0.91369        1.49839