14

O          1.33115       -0.49431        0.13114
O          2.66887       -0.14166       -0.09432
C          2.90540        1.10641        0.55396
C          2.30662        2.29677       -0.19652
C          0.78414        2.40902       -0.14374
O          0.32406        2.70092        1.17936
O          0.31856        1.44258        1.90613
H          2.63475        1.07581        1.61440
H          3.99463        1.22810        0.54119
H          2.73089        3.21358        0.23143
H          2.61682        2.24376       -1.24666
H          0.48580        3.26651       -0.75954
H          0.26666        1.54489       -0.57044
H          0.26611        1.82779        2.80275