10

O          1.09979        0.04650        0.02422
C          2.42173        0.05712       -0.06124
C          2.96546       -1.06444        0.85266
C          2.54847       -2.43734        0.37687
O          3.34159       -3.35400        0.14813
H          2.88803       -0.11708       -1.04452
H          2.94650        0.96775        0.26828
H          4.06215       -1.02949        0.85699
H          2.63191       -0.94331        1.89138
H          1.46071       -2.61189        0.31518