14

O          1.19489        0.30141       -0.37854
O          2.53261        0.22624        0.03321
C          2.76915       -1.09857        0.50529
C          2.17036       -1.36003        1.88798
C          0.64789       -1.47513        1.93420
O          0.18780       -2.64261        1.24659
O          0.18230       -2.31747       -0.16971
H          2.49850       -1.85405       -0.23949
H          3.85838       -1.17210        0.60308
H          2.59463       -2.29787        2.26764
H          2.48056       -0.55512        2.56453
H          0.34955       -1.60844        2.98145
H          0.13041       -0.57410        1.59226
H          0.12986       -3.23628       -0.49849