12

O          1.18273        0.52557       -0.10609
C          2.30706       -0.00430        0.05431
H          2.81785       -0.01096        1.01103
C          2.76923       -0.97552       -0.99377
C          2.31063       -2.38849       -0.65664
C          0.80683       -2.49936       -0.70097
O          0.21678       -3.31191       -1.42148
H          2.44415       -0.69115       -2.00444
H          3.86756       -0.95474       -1.01231
H          2.73666       -3.10378       -1.36771
H          2.64542       -2.67394        0.34750
H          0.24491       -1.87711        0.01493