11

C          0.92958       -0.00373        0.17032
C          0.13360       -0.80825        0.83896
O          0.17563       -1.77703        1.74230
C         -1.12583       -1.32954        1.13804
C         -2.09630       -0.70750        2.06640
H          0.50668        0.70747       -0.52987
H          2.00936       -0.04480        0.26456
H         -1.58446       -1.95706        0.39004
H         -2.70853        0.01160        1.51234
H         -2.77452       -1.47666        2.45210
H         -1.65008       -0.19000        2.92216