7

C          1.03865        0.00146        0.06487
C          0.23348        1.06806       -0.00476
C         -1.16894        0.85252        0.00931
O         -2.30626        0.55431        0.02878
H          0.60312       -0.99396        0.12986
H          2.11829        0.08105        0.05968
H          0.62254        2.07978       -0.07080