9

C          0.94498       -0.02546       -0.07087
C          0.23939       -0.85043        0.71327
C         -1.25319       -0.87996        0.74135
H          0.45367        0.67613       -0.73775
H          2.02991       -0.03488       -0.06192
H          0.76241       -1.54171        1.37035
H         -1.61414       -1.87390        0.46075
H         -1.61414       -0.65012        1.74824
H         -1.68827       -0.15179        0.04921