8

C          1.00063       -0.11115       -0.03075
C          0.29491       -1.19613        0.31586
C         -1.24039       -1.22873        0.32628
O         -1.72231       -2.34230        0.68202
O         -1.82532       -0.16371       -0.01396
H          0.48578        0.80071       -0.32206
H          2.08220       -0.11750       -0.02872
H          0.80206       -2.11018        0.60786