8

C          1.01839       -0.06106        0.05896
C          0.35615       -0.97863       -0.65376
C         -1.11964       -1.00593       -0.67496
O         -1.73070       -1.84410       -1.32601
H          0.51456        0.69824        0.64875
H          2.10461       -0.05446        0.06409
H          0.86214       -1.73543       -1.24161
H         -1.63356       -0.23565       -0.07665