9

C          1.01585        0.09297        0.02089
C          0.29485       -0.65245       -0.82808
C         -1.19090       -0.70196       -0.88447
O         -1.75797       -1.41893       -1.70104
O         -1.73061        0.12439        0.05668
O         -3.13418        0.05128       -0.02659
H          0.57162        0.74651        0.76522
H          2.10202        0.06509       -0.01086
H          0.78824       -1.29144       -1.55584