10

C          0.90568       -0.07721       -0.02142
C          0.17981        0.38139       -1.05015
C         -1.30212        0.40560       -1.10445
O         -1.89968        0.84012       -2.07916
O         -1.84206       -0.10502        0.04096
O         -3.29599       -0.04902       -0.08466
H          0.45010       -0.47823        0.87815
H          1.99048       -0.06012       -0.05974
H          0.66580        0.77669       -1.93687
H         -3.49220       -0.43676        0.78513