9

C          1.03980       -0.06596        0.01319
C          0.31881       -0.14149        1.14043
C         -1.16694       -0.14651        1.21530
O         -1.73402       -0.21917        2.29953
O         -1.70666       -0.06277       -0.03434
O         -3.11022       -0.07018        0.07622
H          0.59557        0.00027       -0.97513
H          2.12597       -0.06878        0.05534
H          0.81219       -0.20625        2.10674