13

C          0.98000        0.08797        0.04910
C          0.26765       -0.51043       -0.91827
C         -1.23721       -0.62171       -0.89471
O         -1.71047        0.01037       -2.09652
C         -1.76554       -2.09205       -0.84378
O         -1.38579       -2.67151        0.29338
H          0.47356        0.52889        0.90066
H          2.06081        0.05772        0.04558
H          0.77025       -1.03025       -1.72694
H         -1.65870       -0.04740       -0.05865
H         -1.35996        0.91224       -2.05399
H         -2.84977       -1.99914       -1.02035
H         -1.45696       -2.54949       -1.79851