7

C          0.95626        0.06954       -0.08365
C          0.25396       -1.00490        0.30494
O         -1.11043       -1.17842        0.36769
O         -1.71999        0.01145       -0.06264
H          0.46649        0.98099       -0.41328
H          2.04038        0.05698       -0.07910
H          0.73020       -1.91879        0.63545