10

C          0.93763       -0.02091       -0.04850
C          0.32094       -1.35516        0.18825
H         -0.68533       -1.41136        0.58740
C          0.90812       -2.59194       -0.43073
O          0.37319       -2.65216       -1.63758
H          0.58999        0.68870        0.70833
H          0.65745        0.36511       -1.03305
H          2.02826       -0.07211        0.01694
H          1.99917       -2.50514       -0.32515
H          0.69082       -3.39914        0.28445