10

C          1.05027       -0.05288        0.06830
C          0.48792        1.18722        0.67077
H         -0.50197        1.51177        0.37437
C          1.05027        1.67506        1.96029
H          0.67783       -0.17941       -0.95295
H          0.74862       -0.92372        0.65645
H          2.14172       -0.00948        0.02975
H          0.74862        1.01055        2.77436
H          2.14172        1.71737        1.92056
H          0.67783        2.68067        2.17868