9

C          1.06503        0.18360       -0.07118
C          0.94489       -0.76537        1.03569
C          1.06514       -1.93247        1.88123
H          0.53605        1.12366        0.07930
H          0.68459       -0.29921       -0.97455
H          2.12648        0.39221       -0.22524
H          0.68433       -2.79957        1.33192
H          2.12709       -2.10772        2.08167
H          0.53521       -1.86255        2.83646