7

C          0.98625       -0.08559       -0.09369
C          0.40514       -1.28748        0.55357
H         -0.60481       -1.26101        0.94392
H          0.91939       -2.24012        0.49295
H          0.62974        0.82218        0.40146
H          0.69888       -0.04708       -1.14774
H          2.07733       -0.10756       -0.02692