11

C          1.06323        0.04664       -0.02511
C          0.50120       -0.42001       -1.32237
H         -0.49678       -0.84447       -1.33462
C          1.04659        0.15786       -2.57568
O          0.60882        1.50081       -2.66339
H          0.69822       -0.57735        0.79524
H          0.75460        1.07890        0.16267
H          2.15612       -0.00148       -0.03248
H          2.14064        0.13817       -2.58103
H          0.68713       -0.38959       -3.45138
H         -0.35301        1.49541       -2.51578