10

C          1.02887        0.13097        0.02625
C          0.46652       -0.79231       -0.99766
H         -0.52337       -1.20439       -0.84475
C          1.02887       -0.76045       -2.37600
H          0.65643       -0.13509        1.02031
H          0.72722        1.15890       -0.19202
H          2.12032        0.07627        0.04569
H          0.72722        0.16104       -2.88111
H          2.12032       -0.81458       -2.35505
H          0.65643       -1.61056       -2.95588