10

C         -1.16935        3.59723        1.44715
C         -0.67300        2.72395        0.34790
C         -0.47468        1.29515        0.51244
C          0.60717        2.05504        0.48918
H         -0.78998        3.30988        2.43542
H         -2.26257        3.57992        1.48537
H         -0.85092        4.62761        1.25740
H         -0.99668        3.02397       -0.63902
H         -1.48852        0.95442        0.48388
H          1.27662        2.88733        0.42311