9

C          1.07188        0.07777       -0.05698
C          0.48888        1.21803        0.68290
O          0.69014        2.56188        0.09415
C         -0.53221        2.06411        0.17332
O         -1.52537        1.98775       -0.50428
H          0.73874        0.03811       -1.09789
H          0.74246       -0.84079        0.43933
H          2.16659        0.09401       -0.02501
H          0.63539        1.12024        1.74638