10

C          1.07811        0.04625        0.00519
C          0.57134        0.41715       -1.35142
C         -0.19941       -0.39884       -2.07857
O         -0.68846       -0.11107       -3.31983
H          0.74231       -0.95063        0.30936
H          0.72246        0.76541        0.74922
H          2.17225        0.05232        0.01269
H          0.85964        1.39357       -1.72926
H         -0.51744       -1.38204       -1.75268
H         -0.38513        0.77513       -3.58075