7

C          0.98792       -0.07485        0.05286
C          0.47226        0.32195       -1.29602
O         -0.23492       -0.40298       -1.98843
H          0.64014       -1.07991        0.30385
H          0.62177        0.63328        0.79985
H          2.08020       -0.06166        0.03789
H          0.76836        1.32564       -1.64467