14

C          0.91452       -0.02866       -0.04758
C          0.44382       -1.29554       -0.74541
C          1.01937       -2.53401       -0.14446
H          0.55658       -3.49866       -0.30544
O          2.38183       -2.57462        0.00853
C          2.80828       -3.71563        0.74540
H          0.56927       -0.00076        0.99141
H          0.51980        0.85408       -0.56030
H          2.00713        0.04761       -0.04498
H         -0.64965       -1.34860       -0.69417
H          0.71552       -1.25674       -1.80585
H          2.43432       -3.67425        1.77384
H          2.48967       -4.64324        0.25837
H          3.90181       -3.70472        0.77512