8

C          1.08077       -0.03980        0.10115
C          0.58277       -1.08351        1.11670
O          1.06317       -0.73171        2.29831
H          0.72381        0.96951        0.34190
H          0.70749       -0.28823       -0.89923
H          2.17627       -0.01339        0.04401
H         -0.50989       -1.11659        0.98371
H          0.88078       -2.05766        0.69850