8

C          0.97101        0.06653        0.07372
C          0.46698        1.42617        0.50228
H          0.61625       -0.17523       -0.93262
H          0.61625       -0.70860        0.75953
H          2.06489        0.04657        0.06742
H          0.82174        2.20131       -0.18353
H         -0.62690        1.44614        0.50858
H          0.82174        1.66794        1.50862