14

C          1.12746       -0.05152        0.04214
C          0.60576       -0.59108        1.38985
O          1.06871        0.23306        2.31663
C         -0.95130       -0.56474        1.40816
O         -1.46786       -1.43428        0.38232
C         -1.50718       -1.08412        2.72803
O         -2.35087       -0.50472        3.41888
H          0.75867        0.96288       -0.16124
H          0.80941       -0.68860       -0.78932
H          2.22388       -0.02566        0.01471
H          0.90071       -1.65099        1.41214
H         -1.35649        0.43826        1.22620
H         -1.14521       -1.05197       -0.44906
H         -1.15196       -2.08752        3.01533