13

C          1.00555       -0.13555       -0.04871
C          0.49839        0.94387        0.90573
C          1.04217        2.34633        0.59385
O          0.76364        2.84875       -0.70636
O         -0.92594        0.94421        1.03425
O         -1.46871        1.07759       -0.25495
H          0.66447        0.02399       -1.07585
H          0.63358       -1.11988        0.25420
H          2.09977       -0.16145       -0.05388
H          0.86662        0.68195        1.90562
H          0.63315        3.06948        1.30736
H          2.13146        2.34478        0.70011
H          0.71267        2.10875       -1.33949