12

C          1.06786       -0.08549        0.05772
C          0.55089        1.31231       -0.26800
C          1.06785        1.82014       -1.61042
O         -0.87662        1.38010       -0.19056
O         -1.39462        0.51858       -1.17474
H          0.74084       -0.81926       -0.68597
H          0.68340       -0.41935        1.02714
H          2.16197       -0.09921        0.09108
H          0.91844        1.99224        0.50873
H          0.74083        1.18010       -2.43615
H          0.68339        2.82522       -1.81305
H          2.16196        1.85503       -1.61960