11

C          0.94951       -0.08927        0.05053
C          0.45497        1.24565        0.58149
C          0.94951        2.39940       -0.27453
H          0.59493       -0.25949       -0.97096
H          0.58416       -0.90790        0.67854
H          2.04346       -0.12682        0.04468
H         -0.64038        1.24831        0.60192
H          0.80067        1.38029        1.61231
H          0.59492        2.30153       -1.30548
H          0.58415        3.35187        0.12213
H          2.04345        2.43419       -0.28984