12

C          0.94810        0.06172       -0.01200
C          0.46134       -1.36954       -0.18460
C          0.95434       -2.31293        0.90980
O          0.34774       -2.01349        2.16404
O          1.16310       -1.04877        2.78027
H          0.53338        0.52126        0.89003
H          0.63498        0.67402       -0.86240
H          2.04108        0.09784        0.05047
H         -0.63570       -1.36527       -0.19627
H          0.80257       -1.74228       -1.15671
H          0.65574       -3.33366        0.65307
H          2.05095       -2.31263        0.98722