10

C          1.00858        0.07926       -0.05676
C          0.54190        0.12692        1.38612
O          0.96999        1.33467        2.01659
O          2.41635        1.22887        2.15142
H          0.66609        0.96549       -0.60042
H          0.63158       -0.81581       -0.55875
H          2.10189        0.07270       -0.11533
H         -0.55266        0.11364        1.41859
H          0.90260       -0.73774        1.95366
H          2.55387        2.13207        2.49324