10

C          0.88721        0.00751        0.03280
C          0.42053       -0.69900       -1.22617
O          0.84862       -2.06140       -1.22991
O          2.29497       -2.02954       -1.39831
H          0.54471       -0.52898        0.92339
H          0.51021        1.03319        0.06642
H          1.98052        0.04029        0.08178
H         -0.67403       -0.70215       -1.26111
H          0.78122       -0.19265       -2.12803
H          2.43249       -2.98871       -1.28600