7

C          1.06723       -0.04585        0.04438
O          0.57578       -0.69171       -1.12314
O          1.09148        0.08587       -2.23950
H          0.70826       -0.59134        0.92074
H          0.69624        0.98221        0.08869
H          2.16106       -0.05264        0.04456
H          0.68664       -0.45733       -2.93952