9

O          1.50947        0.30055        0.34535
C          2.23837       -0.23741       -0.40325
O          3.03914       -0.83719       -1.27867
C          4.40464       -0.67000       -0.95605
C          4.93656        0.73957       -1.13017
O          5.69269        1.27969       -0.32817
H          4.63426       -1.03831        0.05154
H          4.96662       -1.28803       -1.66462
H          4.67501        1.23340       -2.08128