8

O          1.16071       -0.37147        0.42312
C          2.00721        0.11596       -0.23241
C          3.01376        0.71037       -1.10225
C          2.73245        0.22511       -2.49184
O          2.26437        0.94030       -3.37251
H          2.94184        1.80161       -1.07916
H          4.03954        0.43630       -0.83152
H          2.93623       -0.84453       -2.67911