8

O          1.04966        0.46132        0.31499
C          1.89616       -0.22149       -0.13343
C          2.90271       -1.12448       -0.67617
C          2.62140       -2.48344       -0.11078
O          2.15332       -3.40428       -0.77346
H          2.83079       -1.16499       -1.76689
H          3.92849       -0.83824       -0.41833
H          2.82518       -2.60809        0.96795