8

O          1.31346        0.05545       -0.04871
C          2.51718        0.05538       -0.04884
C          3.66387       -0.74983       -0.12599
C          3.66404        0.86033        0.02844
H          3.95408       -1.33175        0.73605
H          3.90616       -1.17515       -1.08854
H          3.95454        1.44215       -0.83357
H          3.90651        1.28554        0.99099