7

O          1.09350       -0.16897        0.09032
C          2.29772       -0.08943       -0.01871
C          3.38532        0.97882        0.03611
O          4.25155       -0.04270       -0.48401
O          3.20484       -1.06269       -0.25841
H          3.25068        1.82554       -0.63663
H          3.68484        1.28289        1.03923