8

O          1.18735       -0.06139       -0.05263
C          2.39106       -0.06147       -0.05276
C          3.53776       -0.86667       -0.12992
C          3.53793        0.74349        0.02451
H          3.82797       -1.44859        0.73213
H          3.78004       -1.29199       -1.09246
H          3.82842        1.32531       -0.83750
H          3.78040        1.16870        0.98707