12

O          1.03573        0.12521       -0.15996
C          2.24861        0.11956        0.02980
C          2.88651       -0.74889        1.02969
H          3.80571       -0.43934        1.50161
O          2.15578       -1.73469        1.63436
C          2.92376       -2.60641        2.44854
C          3.80763       -3.51143        1.62023
O          5.02801       -3.56357        1.74736
H          2.93499        0.76254       -0.54110
H          3.51715       -2.05215        3.18445
H          2.22420       -3.24589        2.99673
H          3.28291       -4.14150        0.88195