14

O          0.93704       -0.03039        0.13168
C          2.16643       -0.09338        0.11266
C          2.93459       -1.34716       -0.24588
O          3.77885       -1.17691       -1.37764
C          3.11061       -0.78754       -2.51227
H          2.29700       -0.09227       -2.35674
C          3.89711       -0.69189       -3.76557
O          4.81690        0.38098       -3.64127
H          2.78311        0.79636        0.31717
H          3.57541       -1.58923        0.60921
H          2.24934       -2.18825       -0.39907
H          4.44316       -1.61826       -3.96027
H          3.23632       -0.48627       -4.61254
H          4.31299        1.15741       -3.34691