8

O          0.97696        0.04476        0.11579
C          2.20449        0.02692        0.07711
C          2.99306       -0.55429       -1.07293
O          3.82516        0.43452       -1.65353
H          2.80654        0.44094        0.90322
H          3.61979       -1.36510       -0.69189
H          2.31444       -0.95507       -1.83133
H          3.23882        1.10846       -2.04330