9

C          1.07158        0.23757        0.12392
H          0.55467        0.13325        1.07089
H          0.55195        0.69932       -0.70846
C          2.50410        0.09285        0.07616
C          3.13753       -0.75756        0.90695
O          3.09529        0.91264       -0.87769
O          4.49181        0.83023       -0.74378
H          4.21937       -0.84933        0.90403
H          2.60163       -1.39074        1.60525