8

C          1.04046       -0.04423        0.18018
H          0.55039       -0.92831        0.57510
H          0.54133        0.91130        0.30107
C          2.47348       -0.05432        0.02734
C          3.13942       -1.10779       -0.34210
O          3.68708       -2.09309       -0.68785
O          3.08835        1.13054        0.38922
O          4.47835        0.95428        0.37277