14

C          0.99943        0.03040        0.19339
H          0.52287       -0.93899        0.22247
H          0.47288        0.92567        0.48663
C          2.45930        0.06309        0.00993
O          3.01687       -0.87026       -0.56259
C          3.20221        1.18695        0.66999
C          2.86248        2.53594        0.09661
C          2.22813        3.55592        1.00576
O          3.05849        2.79944       -1.08976
H          2.97005        1.14777        1.74014
H          4.28071        1.02603        0.57546
H          2.85975        4.44669        1.04102
H          1.23853        3.81128        0.61701
H          2.11058        3.16887        2.02065