7

C          0.94620       -0.10894       -0.02419
C          2.28013       -0.03532       -0.08351
C          3.05401        0.95900       -0.88461
H          2.85654       -0.75205        0.49394
H          3.69489        1.55327       -0.22539
H          3.69489        0.44132       -1.60554
H          2.40351        1.64506       -1.43735