11

C          1.14454        0.07690       -0.25950
H          0.64924        0.98899        0.03785
H          0.64704       -0.68527       -0.84071
C          2.60630        0.01177       -0.09449
O          3.14820        0.70517        0.76433
C          3.36680       -0.84452       -1.09025
O          2.98542       -2.21157       -1.05274
O          3.40449       -2.70422        0.25174
H          3.14032       -0.45564       -2.09002
H          4.44534       -0.74202       -0.93416
H          3.06748       -3.61150        0.14265