13

C          1.11379        0.02794       -0.21498
H          0.56861        0.92153       -0.49488
H          0.61412       -0.93057       -0.30747
C          2.59223        0.07348       -0.01457
C          3.07410        1.37074        0.63710
C          2.59125        1.53244        2.07197
H          2.89937       -0.78374        0.59454
H          3.07382       -0.03580       -0.99278
H          4.17090        1.37963        0.63407
H          2.74861        2.23411        0.04489
H          2.94075        0.70475        2.69710
H          2.97845        2.46422        2.49656
H          1.49889        1.56863        2.12720