9

C          1.11148       -0.15466       -0.09485
H          0.56966       -0.10185       -1.03046
H          0.61819       -0.55658        0.78231
C          2.52826        0.01503       -0.08167
C          3.18754        0.78486       -0.95341
O          3.15056       -0.71287        0.89499
H          4.26754        0.87043       -0.94240
H          2.65884        1.36656       -1.70238
H          4.11009       -0.61104        0.78847