10

C          1.00332       -0.15570       -0.21212
H          0.46507        0.27544       -1.04747
H          0.49588       -0.90240        0.39095
C          2.48539       -0.02089       -0.11398
C          2.97056        1.34181       -0.58132
H          2.79497       -0.18048        0.92394
H          2.95034       -0.80398       -0.72176
H          2.59634        2.13937        0.06946
H          4.06492        1.37800       -0.56395
H          2.64231        1.55393       -1.60407