10

C          0.97339        0.19370        0.16730
H          0.43514       -0.25648        0.99254
H          0.46595        0.95404       -0.41849
C          2.45546        0.06118        0.06609
C          2.94063       -1.31188        0.50206
H          2.76504        0.24453       -0.96789
H          2.92041        0.83013        0.69167
H          2.56641       -2.09430       -0.16684
H          4.03499       -1.34766        0.48386
H          2.61238       -1.54739        1.51968