11

C          1.10230       -0.02007       -0.10073
H          0.59717        0.76574       -0.64935
H          0.59451       -0.96542        0.05829
C          2.52667        0.00867        0.05434
C          3.25739        1.13179        0.14888
O          4.62592        1.21634        0.26706
C          5.41044        0.15644       -0.07469
H          5.04850       -0.51134       -0.83783
H          6.44515        0.28385        0.19239
H          3.00724       -0.96255        0.08528
H          2.83096        2.12725        0.18912