10

C         -0.75025       -0.98848        0.07936
H         -1.39149       -1.84059        0.20426
C         -1.15464        0.41067        0.27700
O         -0.03107        1.14219       -0.20363
O          1.14685        0.32807        0.14850
C          0.72066       -1.03617        0.08957
H         -2.04159        0.68131       -0.29685
H         -1.30831        0.62603        1.33774
H          1.07663       -1.53793        0.99273
H          1.13692       -1.52118       -0.79642