7

C          1.27461        0.19711        0.27485
H          0.30664        0.36223        0.68084
C          2.44669        0.09774        0.03202
C          3.64132        0.06789       -0.03958
C          4.93985        0.07742       -0.01566
H          5.48843       -0.66957        0.54568
H          5.49658        0.85578       -0.52186