8

C          0.95807        0.07391       -0.09668
C          2.29277        0.06624       -0.09036
C          3.05765        1.01050       -0.86834
C          4.39778        1.03971       -0.89240
H          2.81995       -0.66569        0.51268
H          2.49856        1.73151       -1.46238
H          4.92257        1.77356       -1.49703
H          5.00319        0.34417       -0.31935