10

C          1.05282        0.15079       -0.08102
H          0.52139        0.97006        0.39249
H          0.55969       -0.39663       -0.87695
C          2.48009        0.05275        0.05658
C          3.13112        0.44315        1.15946
C          4.60631        0.42447        1.19696
O          5.22393        0.79476        2.19096
H          3.00974       -0.33682       -0.80943
H          2.63546        0.80538        2.05239
H          5.11913        0.08653        0.28242