16

C          1.03022       -0.06850       -0.12060
H          0.51769        0.81946        0.22389
H          0.66900       -0.61948       -0.97577
O          2.39010       -0.09553       -0.00262
C          2.84618        0.42209        1.24479
C          2.42293        1.85619        1.51134
O          1.74495        2.14411        2.50651
C          2.78665        2.91245        0.50138
O          3.57804        2.63598       -0.60386
C          2.29846        4.14986        0.66419
O          1.48418        4.58150        1.68138
H          2.50957       -0.22151        2.06736
H          3.94237        0.38818        1.24860
H          3.71012        1.67570       -0.69404
H          2.50291        4.95815       -0.02652
H          1.31666        3.82361        2.28743