8

C          1.09635        0.10326        0.02030
C          2.43104        0.09389        0.02366
C          3.19593        1.24558       -0.38928
C          4.53606        1.28120       -0.40205
H          2.95823       -0.79881        0.34374
H          2.63684        2.12497       -0.70459
H          5.06084        2.17625       -0.72298
H          5.14146        0.43288       -0.09789