13

C          0.99556       -0.19424        0.14311
H          0.51365       -0.79646       -0.61971
H          0.45805       -0.03632        1.07072
C          2.47461       -0.04542        0.10871
C          2.99322        1.10343        0.93270
C          4.37015        0.61234        1.25854
O          4.21428       -0.78650        1.48521
O          3.05967       -1.22032        0.67483
H          2.81722        0.03291       -0.92873
H          2.98690        2.06247        0.40647
H          2.41836        1.21733        1.85923
H          4.77543        1.08391        2.15851
H          5.07118        0.75795        0.43103