17

C          1.11497       -0.25452       -0.18173
H          0.62542       -0.09305       -1.13038
H          0.59230       -0.70159        0.65339
C          2.56986       -0.07581       -0.11029
O          3.13710        0.75227       -0.81964
C          3.32533       -0.92044        0.86415
C          2.97546       -0.61420        2.28713
O          2.45858       -1.48114        2.99923
C          3.24444        0.76440        2.82971
O          3.82817        1.76883        2.07161
C          2.89557        1.03300        4.09660
O          2.30902        0.17321        4.99095
H          3.09140       -1.96927        0.64774
H          4.40351       -0.79968        0.71919
H          3.98405        1.50251        1.14727
H          3.05176        2.00275        4.55311
H          2.19052       -0.69986        4.55273