7

C          0.94152       -0.05552        0.05914
H          0.45550        0.38668       -0.80330
H          0.45524       -0.86851        0.58649
C          2.46152       -0.05552        0.05914
C          3.76538       -0.05552        0.05914
O          5.09190       -0.05102        0.06218
H          5.43316       -0.78364       -0.48169