8

C          1.14594        0.01025        0.15311
H          0.61340       -0.92916        0.23212
H          0.62751        0.91704        0.44165
C          2.61607        0.04407       -0.01013
O          3.00769       -1.01097       -0.86556
H          2.93333        0.98904       -0.45994
H          3.11169       -0.07150        0.95734
H          2.71645       -1.84312       -0.45474