7

C          1.25429       -0.21648       -0.08304
H          0.24058       -0.48675       -0.27403
C          2.54001       -0.05685        0.02977
C          3.18357        1.02293        0.79282
O          4.41160        1.09835        0.84611
H          3.21040       -0.74882       -0.45923
H          2.53226        1.74725        1.30466