11

C          1.12770        0.24575        0.03218
H          0.64889       -0.04901        0.95488
H          0.60854        0.84309       -0.70451
C          2.58622        0.08619       -0.06128
O          3.14431       -0.80694        0.57177
C          3.33424        1.09283       -0.87951
C          2.97157        1.03967       -2.32858
O          2.44891        1.98066       -2.91976
H          3.11247        2.08757       -0.47797
H          4.41036        0.92390       -0.78026
H          3.19862        0.09603       -2.85254