8

C          1.05756        0.07585       -0.27809
H          0.52502        1.00212       -0.10270
H          0.53913       -0.72057       -0.79889
C          2.52769       -0.00043       -0.12986
O          2.91931        0.78705        0.97681
H          2.84495       -1.03134        0.05052
H          3.02332        0.36995       -1.03107
H          2.62808        1.69881        0.80379