11

C          1.03206        0.17999       -0.25451
H          0.50866        0.77423        0.48665
H          0.48815       -0.15120       -1.13222
C          2.46737       -0.01364       -0.14220
C          3.20035       -0.78538       -1.20706
C          3.33594        0.71029       -1.13605
H          2.84049       -0.10435        0.87306
H          4.05922       -1.37767       -0.91267
H          2.63309       -1.21484       -2.02394
H          2.85938        1.30049       -1.91007
H          4.26940        1.12495       -0.77602