7

C          1.24740       -0.08561       -0.38726
H          0.25069       -0.09928       -0.76935
C          2.63691       -0.07595       -0.11721
C          3.18121       -0.03221        1.10571
H          3.28691       -0.10692       -0.98302
H          4.26395       -0.02898        1.19587
H          2.60820        0.00068        2.02498