11

C          1.02647       -0.19872        0.05872
H          0.50504       -0.91208       -0.56954
H          0.53210        0.17842        0.94707
C          2.45088       -0.07347       -0.03667
C          3.13862       -0.24977       -1.17528
C          4.63194       -0.22679       -1.22313
H          2.97326        0.14732        0.89009
H          2.62173       -0.43762       -2.11322
H          5.00055       -1.18628       -1.59985
H          4.98594        0.56695       -1.88670
H          5.06922       -0.06685       -0.23201