9

C          1.09819       -0.21303       -0.13708
H          0.62663        0.00313       -1.08441
H          0.56267       -0.81093        0.58711
C          2.55048       -0.19525       -0.01379
O          3.06162        0.84315       -0.60537
O          2.88021       -0.09474        1.33270
O          3.08706       -1.34209       -0.57865
H          2.90072        0.87187        1.40956
H          3.96915       -1.00773       -0.79114