7

C          1.15385       -0.06481        0.19631
H          0.69351       -0.96691        0.58130
H          0.63751        0.87661        0.33634
C          2.57680       -0.02461        0.04779
O          3.13016       -1.09400       -0.29481
C          3.29495        0.99657        0.41643
O          3.85909        1.96635        0.78798