11

C          1.04586        0.10500        0.27689
H          0.56705       -0.82497        0.54782
H          0.52670        1.04971        0.36082
C          2.50438        0.09339        0.09233
O          3.06247       -0.93060       -0.29484
C          3.25240        1.33436        0.47021
C          2.88973        2.50658       -0.38334
O          2.36707        3.52256        0.06692
H          3.03063        1.55698        1.51958
H          4.32852        1.15768        0.38553
H          3.11679        2.41406       -1.45872