8

C          1.11603       -0.12609        0.09274
H          0.58070       -0.42962       -0.79964
H          0.62376       -0.20245        1.05555
C          2.53733        0.04967        0.04932
C          3.19224        0.45735       -1.04450
H          3.08662       -0.18220        0.95750
H          4.27464        0.53316       -1.03794
H          2.67786        0.73134       -1.95953