10

C          1.07889        0.00235       -0.05674
H          0.57052        0.95583       -0.05987
H          0.72985       -0.82290       -0.65877
O          2.43599        0.02429        0.06985
C          2.89421        0.95022        1.05059
C          2.46491        2.37837        0.78798
O          1.78170        3.03974        1.56947
H          2.57669        0.63531        2.05154
H          3.99014        0.93466        1.03362
H          2.78166        2.79544       -0.18117