11

C          1.03632        0.32668       -0.29921
H          0.42022        0.92791        0.36047
H          0.62498       -0.04593       -1.22702
C          2.43978        0.11528        0.06748
O          3.32770       -0.67864       -0.73281
O          3.47819        0.75643       -0.68580
C          2.64631        0.03486        1.54294
O          1.70922       -0.00903        2.34030
C          4.01545        0.05717        2.15752
O          5.06066        0.06570        1.53012
H          3.97877        0.06602        3.26028