9

C          1.00600        0.09885        0.13685
H          0.53444       -0.81494        0.46722
H          0.47048        1.03133        0.24825
C          2.45829        0.19295        0.05523
O          2.96944       -0.86616       -0.49843
O          2.78802        1.27130       -0.75736
O          2.99487        0.33786        1.32539
H          2.80853        0.81332       -1.61205
H          3.87696       -0.02167        1.15901