14

C          1.06879        0.15731       -0.04133
H          0.55030        0.03948        0.90377
H          0.57467        0.68661       -0.84829
C          2.49322        0.00895       -0.09190
C          3.17828       -0.83824        0.69141
C          4.67872       -0.88262        0.71329
C          5.20101       -0.55320        2.10379
H          3.01724        0.65839       -0.78758
H          2.65542       -1.51554        1.36323
H          5.02353       -1.87752        0.41163
H          5.09908       -0.16476       -0.00125
H          4.85768       -1.28846        2.83943
H          6.29524       -0.55301        2.10874
H          4.86095        0.43651        2.42887