8

C          1.03650        0.01104        0.16821
H          0.54878       -0.93385       -0.01735
H          0.52355        0.83024        0.65289
C          2.49227        0.07463        0.01411
O          3.10719       -0.65543       -0.75149
C          3.24436        1.04675        0.89139
O          2.65785        1.80320        1.65256
H          4.33891        0.98084        0.80866