15

C          1.07872       -0.17839        0.11302
H          0.51309       -0.83672       -0.53592
H          0.57951        0.26142        0.96897
C          2.56183       -0.07362       -0.01551
C          3.04172       -0.04855       -1.46859
C          2.55639        1.15078       -2.28228
O          3.14119        2.37050       -1.82137
O          2.28649        2.86490       -0.75216
H          2.91730        0.81214        0.52078
H          3.00687       -0.93668        0.49185
H          4.13865       -0.04923       -1.46191
H          2.72128       -0.97019       -1.97017
H          2.89162        1.02389       -3.31823
H          1.46350        1.22582       -2.31312
H          2.99790        3.30088       -0.24557