10

C          1.13568       -0.20671        0.12074
H          0.12408       -0.52517        0.04076
C          2.42192       -0.07468        0.16751
O          3.02659        1.11982       -0.11512
O          4.35855        0.76920       -0.68896
C          4.58980       -0.64732       -0.53951
C          3.31679       -1.19343       -0.02856
O          3.04762       -2.36698        0.17910
H          5.39926       -0.80872        0.17327
H          4.81265       -1.07417       -1.52060