8

C          1.05102       -0.08357        0.22002
H          0.51569       -0.87851       -0.28648
H          0.55875        0.45899        1.01906
C          2.47233        0.02642        0.07622
C          3.12724       -0.33954       -1.03226
H          3.02162        0.41347        0.92989
H          4.20964       -0.27628       -1.07455
H          2.61286       -0.69801       -1.91760