12

C          0.96498        0.09204        0.32909
H          0.40929       -0.80235        0.58875
H          0.46800        1.05252        0.38440
C          2.43308        0.01362        0.05356
C          2.88451       -1.31056       -0.56930
O          2.50062       -1.41360       -1.94409
O          1.09542       -1.79587       -1.95304
H          2.70975        0.84221       -0.60761
H          2.95300        0.15259        1.00758
H          3.98035       -1.34323       -0.55771
H          2.53062       -2.18095       -0.00474
H          0.92247       -1.53014       -2.87688