7

C          1.16907       -0.02148        0.15296
H          0.15537       -0.13291        0.46459
C          2.45479        0.04433       -0.03108
C          3.09835        0.48951       -1.27607
O          4.32638        0.52061       -1.36302
H          3.12518       -0.24096        0.76676
H          2.44704        0.78814       -2.11120