7

C          1.38209       -0.34006        0.04012
H          0.41391       -0.76483        0.14583
C          2.55451       -0.08740       -0.02410
C          3.74924       -0.01417       -0.04392
C          5.04771       -0.03969       -0.03800
H          5.58709       -0.87604       -0.46909
H          5.61407        0.75854        0.42214