13

C          0.96847       -0.07512        0.27637
H          0.42329       -1.01149        0.28333
H          0.46880        0.81469        0.64455
C          2.44691       -0.06019        0.07140
C          2.92878       -1.11082       -0.93047
C          2.44593       -0.84676       -2.35007
H          2.75405        0.93746       -0.26105
H          2.92850       -0.24112        1.03892
H          4.02558       -1.12021       -0.93016
H          2.60329       -2.10942       -0.61598
H          2.79543        0.12732       -2.70647
H          2.83313       -1.61409       -3.02809
H          1.35357       -0.86526       -2.41346