13

O          0.88385       -0.05832       -0.13735
O          2.29019       -0.05415       -0.06462
C          2.67173        0.93069        0.88960
C          2.16809        2.30623        0.47075
O          1.54078        3.08554        1.18766
C          2.23209        0.56976        2.28577
C          3.07828        0.35205        3.29672
O          2.69473        0.06049        4.57378
H          3.76670        0.98560        0.84808
H          2.47195        2.61944       -0.54214
H          1.15605        0.53336        2.44371
H          4.15853        0.38733        3.21666
H          1.72178        0.06790        4.62404