14

O          1.06766       -0.00062        0.10791
C          2.39557        0.02406        0.00003
C          2.88330        0.93015       -1.19032
C          2.00934        0.97232       -2.40165
C          1.81819        2.22896       -2.78635
C          2.61525        3.12674       -1.91934
O          3.04880        2.32428       -0.81014
H          2.96204        0.37530        0.87603
H          2.88417       -0.94458       -0.20213
H          3.88799        0.58952       -1.47753
H          1.52386        0.09028       -2.78947
H          1.14323        2.54453       -3.56463
H          2.03997        3.97748       -1.54592
H          3.49581        3.49691       -2.45622