15

O          1.12128        0.03346       -0.43853
C          2.40605        0.01851       -0.13626
C          2.72405        1.09705        0.92845
C          2.68345        2.51792        0.47148
O          2.97425        2.96443       -0.63349
O          2.48187        3.32970        1.55460
O          1.90223        2.52166        2.63303
C          1.92259        1.16016        2.20472
C          0.50306        0.63265        2.13905
O          0.08608       -0.27446        2.86319
H          2.83097       -0.91066        0.27578
H          3.09904        0.22852       -0.96421
H          3.77681        0.94662        1.21963
H          2.42722        0.60168        3.00229
H         -0.16605        1.14326        1.42391