11

O          1.07908        0.00836        0.05601
C          2.34028       -0.06215       -0.02985
O          3.11847       -0.55016        0.85796
C          3.06297        0.60688       -1.24865
O          2.87177        0.17257       -2.50052
C          2.68261        2.07870       -1.19706
O          3.50072        2.99518       -1.00864
C          1.24387        2.56853       -1.43517
O          0.24283        1.97037       -1.79398
H          4.11227        0.62112       -0.90106
H          1.18633        3.66069       -1.31223