10

O          0.91636        0.15133       -0.06346
O          2.32291        0.10264        0.03704
C          2.73750       -1.08501       -0.64287
C          2.23083       -2.31796        0.08756
C          1.79620       -3.37558        0.71413
C          1.33347       -4.54104        1.42537
O          1.98045       -4.99966        2.35765
H          2.37716       -1.07209       -1.67721
H          3.83150       -1.09527       -0.65743
H          0.38830       -4.98052        1.07206