11

O          1.15164       -0.02044       -0.05273
O          2.55908       -0.07230       -0.08435
C          3.04111        1.01419        0.57810
O          2.41320        1.91687        1.12847
C          4.54160        0.98392        0.55964
O          5.28076       -0.02255       -0.05402
C          5.20302        1.98071        1.16739
O          4.66302        3.05739        1.82385
H          4.71208       -0.69440       -0.46365
H          6.28537        2.03221        1.19879
H          3.68092        3.00721        1.79326