10

O          1.42448       -0.25720       -0.27606
O          2.78915       -0.09367       -0.11856
C          3.05902        0.87388        0.81326
C          2.34801        1.69925        1.60815
O          3.03464        2.57999        2.45637
C          0.85654        1.83305        1.73701
O         -0.01402        1.21778        1.14446
H          4.14341        0.90014        0.83855
H          3.99552        2.47508        2.35534
H          0.56138        2.59848        2.47418