11

O          1.03653       -0.24798        0.13556
O          2.39761        0.07544        0.12241
C          2.65038        0.93230       -0.98773
O          2.24283        0.46974       -2.27038
C          2.19000        2.34878       -0.69910
O          2.95927        3.28140       -0.46675
C          0.71074        2.66229       -0.70569
O         -0.16097        1.87346       -1.03184
H          3.74515        0.98906       -1.03598
H          2.57448       -0.43804       -2.36089
H          0.48396        3.69742       -0.41401