9

O          1.03983       -0.04849        0.03559
C          2.36009       -0.06811       -0.06775
C          2.89335        1.32557        0.24613
O          3.67579        1.58122        1.16626
C          2.55635        2.48982       -0.68260
O          1.99894        2.41892       -1.76840
H          2.91405       -0.72526        0.62275
H          2.84009       -0.32238       -1.02633
H          2.95049        3.44666       -0.30828