12

O          1.13843        0.17914       -0.11288
C          2.38592        0.07494       -0.00727
C          3.11795       -0.62376        0.87590
C          4.61851       -0.68641        0.91664
C          5.14360       -0.10717        2.22472
O          5.99510       -0.61676        2.95348
O          5.11498       -1.99020        0.64984
O          4.66892       -2.86248        1.66762
H          2.96361        0.62441       -0.75251
H          2.59255       -1.21071        1.62809
H          5.03188       -0.03673        0.13348
H          4.78968        0.91284        2.45314