10

O          1.01748       -0.05238        0.06790
C          2.33942       -0.07901       -0.01400
C          2.88315       -0.70719        1.28926
C          2.46616       -2.15230        1.44055
O          3.25928       -3.07946        1.62211
H          2.80572       -0.65373       -0.83063
H          2.86419        0.88543       -0.10174
H          3.97985       -0.67370        1.27836
H          2.54961       -0.15701        2.17860
H          1.37840       -2.33653        1.45870