10

O          1.29342        0.33675       -0.07064
O          2.65809        0.13451        0.03255
C          2.92796       -1.06203        0.64306
C          2.21695       -2.08275        1.16386
O          2.90358       -3.17194        1.71960
C          0.72548       -2.24821        1.24829
O         -0.14508       -1.48732        0.86006
H          4.01235       -1.09451        0.65963
H          3.86446       -3.04220        1.65340
H          0.43032       -3.19481        1.73127