14

O          1.35506       -0.25325        0.28147
O          2.69277       -0.14852       -0.12378
C          2.92931        1.20693       -0.49891
C          2.33052        1.56761       -1.85909
C          0.80805        1.68575       -1.89688
O          0.34797        2.80049       -1.12671
O          0.34246        2.37388        0.26240
H          2.65866        1.90663        0.29851
H          4.01854        1.28734       -0.59113
H          2.75479        2.53043       -2.17000
H          2.64072        0.81369       -2.59203
H          0.50971        1.89438       -2.93175
H          0.29057        0.76237       -1.62093
H          0.29002        3.26653        0.65671