16

O          1.00838        0.25567       -0.13740
C          2.31444        0.05467       -0.06552
C          2.74065        0.10612        1.42319
C          2.30062       -1.08146        2.26964
O          3.13594       -1.83568        2.79856
C          0.83141       -1.29704        2.54583
O         -0.11882       -0.38718        2.10865
C          0.42639       -2.38773        3.20986
O          1.23282       -3.35785        3.75066
H          2.73079       -0.88785       -0.45549
H          2.95228        0.80043       -0.56369
H          3.84049        0.10720        1.44886
H          2.43030        1.03207        1.92420
H          0.24358       -0.00855        1.25071
H         -0.62026       -2.60194        3.37661
H          2.16026       -3.07252        3.57562