13

O          0.98676       -0.15027       -0.03594
O          2.39338       -0.02160       -0.03690
C          2.81441       -0.18619        1.31727
C          3.34841       -1.56457        1.54166
C          4.49878       -1.49245        2.21012
C          4.79927       -0.07015        2.50031
O          6.14298        0.24238        2.23178
O          3.93481        0.67347        1.64065
H          2.00286        0.04382        2.01927
H          2.83768       -2.46853        1.24128
H          5.09069       -2.32838        2.55336
H          4.57396        0.18110        3.54129
H          6.34127       -0.10162        1.34775