9

O          1.02728        0.12414        0.12294
C          2.29592        0.06200        0.02418
O          2.93826       -0.52206       -0.90419
C          3.13415        0.73956        1.10115
O          2.52846        1.31239        2.01166
C          4.66491        0.74710        1.11314
O          5.42365        0.24222        0.31064
O          5.17697        1.41153        2.16925
H          6.14022        1.32487        2.03150