15

O          1.38268        0.60646        0.09542
C          2.56321        0.19872       -0.04076
C          3.37978        0.98060        0.87598
C          4.67357        0.98372        0.91812
O          5.85344        0.99793        0.96225
C          3.11033       -0.76422       -0.82020
O          2.49113       -1.67055       -1.65470
C          1.06333       -1.66364       -1.63963
C          0.44903       -2.12088       -0.31570
O         -0.59809       -1.71212        0.18588
H          2.84900        1.62217        1.57763
H          4.17985       -0.94694       -0.87133
H          0.66685       -0.70748       -1.99298
H          0.74959       -2.41093       -2.37828
H          0.93215       -3.01095        0.11864