11

O          0.94103       -0.12352        0.00558
O          2.34229        0.03150        0.03334
C          2.71927       -0.11733        1.38027
C          3.42271       -1.39260        1.65287
C          4.55313       -1.10609        2.28045
O          4.84093        0.23445        2.43413
C          3.84685        0.84312        1.69249
O          3.89680        2.02026        1.35211
H          1.89736        0.04869        2.08697
H          3.05622       -2.37812        1.41088
H          5.30092       -1.77722        2.67272