10

O          1.13276        0.03827        0.14914
O          2.51621        0.04155       -0.07167
C          3.06967        0.07646        1.16809
C          3.64329       -0.91175        1.82727
O          4.28142       -0.51588        2.97480
O          4.32337        0.96917        2.85762
C          3.31860        1.33244        1.88166
H          3.69890       -1.95843        1.58865
H          2.44068        1.70302        2.41817
H          3.72605        2.11545        1.23730