12

O          1.24652        0.29342       -0.08399
O          2.60702       -0.02940       -0.06061
C          2.80449       -1.12948        0.82249
O          2.34778       -0.97211        2.16449
C          2.27062       -2.44685        0.23816
O          3.04421       -3.31707       -0.17734
C          0.81947       -2.73295        0.17902
C         -0.09174       -1.92663        0.61565
O         -0.93864       -1.19754        0.99090
H          3.89453       -1.23576        0.87894
H          2.71660       -0.13604        2.49247
H          0.52771       -3.66731       -0.27921