14

O          0.95844       -0.01656        0.06740
C          2.28937       -0.02168        0.01786
C          2.85305        0.33642        1.43486
C          4.22331       -0.22340        1.68568
C          4.99550        0.69454        2.26332
C          4.21376        1.94244        2.42923
O          3.05665        1.76775        1.60306
H          2.75500       -0.98400       -0.25387
H          2.78097        0.66620       -0.68847
H          2.18569       -0.00710        2.23764
H          4.49797       -1.23934        1.45124
H          6.01588        0.55432        2.57951
H          4.76532        2.82529        2.09560
H          3.90055        2.08197        3.46936