16

O          1.02589       -0.17275        0.26620
C          2.33300       -0.00010        0.11639
C          2.77231       -0.51321       -1.29875
C          2.28242        0.31238       -2.48465
O          3.25905        0.93525       -3.25210
C          0.97787        0.41718       -2.80766
O         -0.02123       -0.25838       -2.11781
C          0.49034        1.31241       -3.89379
O          1.16815        1.95047       -4.69637
H          2.74910        1.01730        0.19541
H          2.97233       -0.55284        0.82095
H          3.87143       -0.52535       -1.30424
H          2.47582       -1.56185       -1.44228
H          4.13219        0.70898       -2.90105
H          0.33068       -0.38277       -1.18412
H         -0.60742        1.39057       -3.92026