13

O          0.93381        0.14339        0.09238
O          2.33970        0.08071        0.00263
C          2.76999       -1.12986        0.64975
O          2.31358       -1.27783        1.99197
C          2.32352       -2.33745       -0.12843
C          3.17036       -3.20012       -0.70793
C          2.68779       -4.35703       -1.48594
O          3.48199       -5.12697       -2.01486
H          3.86422       -1.09106        0.68677
H          2.61729       -0.48413        2.46249
H          1.24553       -2.46883       -0.20554
H          4.24728       -3.09659       -0.64611
H          1.59630       -4.48161       -1.57068