16

O          1.04031        0.22776        0.31627
C          2.34638        0.16876        0.11112
C          2.77259       -1.32022        0.06814
C          2.33256       -2.08973       -1.17067
O          3.16787       -2.56980       -1.95689
C          0.86334       -2.35170       -1.40332
O         -0.08688       -1.97305       -0.46758
C          0.45832       -2.94530       -2.53388
O          1.26476       -3.42355       -3.53633
H          2.76273        0.61766       -0.80480
H          2.98421        0.61868        0.88694
H          3.87242       -1.34590        0.06760
H          2.46224       -1.87889        0.96050
H          0.27552       -1.14082       -0.03537
H         -0.58833       -3.09814       -2.75824
H          2.19219       -3.26694       -3.24048