14

O          1.03798       -0.10240        0.04465
C          2.35826       -0.10353       -0.05409
C          2.88267        0.57539        1.20824
O          3.63682        0.04909        2.02979
C          2.87843       -1.53260       -0.11700
O          3.65718       -1.96094       -0.97255
C          2.80712        0.71071       -1.28024
C          2.30616        0.13777       -2.59323
O          1.74094        0.80220       -3.46653
H          2.56053        1.62165        1.36227
H          2.54886       -2.19659        0.70139
H          2.48735        1.76041       -1.22142
H          3.90459        0.72477       -1.33782
H          2.56195       -0.91431       -2.79412