14

O          0.95797        0.01588       -0.04867
C          2.27855        0.06783       -0.06303
C          2.82601       -0.65435       -1.31055
C          2.42006       -0.03948       -2.62802
O          3.24131        0.34988       -3.46059
C          2.79700        1.50912       -0.01337
O          3.59916        1.90602        0.83917
C          2.41285        2.54820       -1.07637
O          1.60232        2.42292       -1.98242
H          2.81007       -0.41991        0.77264
H          3.92375       -0.65410       -1.28083
H          2.50451       -1.70378       -1.33534
H          1.33374        0.02955       -2.81570
H          2.98025        3.48208       -0.96569