11

O          1.00755       -0.12694        0.00890
O          2.41209       -0.00921       -0.04134
C          2.85975       -0.73977       -1.17816
O          2.42335       -2.10155       -1.22563
C          2.37354       -0.00817       -2.41735
O          3.11959        0.47744       -3.26697
C          4.37550       -0.72478       -1.11963
O          5.03408       -0.27166       -0.18385
H          2.66954       -2.49950       -0.37145
H          1.27839        0.05704       -2.53610
H          4.88176       -1.19056       -1.98298