10

O          1.10569       -0.18779       -0.02289
O          2.48405        0.07199        0.01025
C          3.00660       -0.81113        0.90006
C          2.85348       -2.11973        1.00954
O          3.59847       -2.68554        2.01307
O          4.51306       -1.58988        2.44024
C          3.96608       -0.36414        1.91101
H          2.23906       -2.79222        0.43754
H          3.48037        0.18047        2.72592
H          4.77825        0.23428        1.49086