10

O          0.92385       -0.00269       -0.03659
C          2.24579       -0.07307        0.01304
C          2.78953        1.35759        0.22822
C          2.37254        1.92900        1.56416
O          3.16565        2.37632        2.39632
H          2.71210       -0.68350        0.80333
H          2.77056       -0.44177       -0.88245
H          3.88622        1.33728        0.19945
H          2.45598        2.04473       -0.56010
H          1.28477        2.00076        1.73481