15

O          1.24031        0.03642        0.15646
C          2.48710        0.07454       -0.03461
C          3.23281        0.41943       -1.11248
C          4.69163        0.35684       -1.04068
C          5.53943        0.41840       -2.01934
O          6.29982        0.48259       -2.92028
O          2.54939        0.83795       -2.24682
C          3.19902        1.30277       -3.40707
C          3.90681        2.62251       -3.15389
O          5.03937        2.91099       -3.53407
H          3.07015       -0.23398        0.83483
H          5.11909        0.11930       -0.07507
H          3.82765        0.51659       -3.83342
H          2.42564        1.50619       -4.15407
H          3.30419        3.37764       -2.62825