11

O          0.97347       -0.07324        0.03915
O          2.37736        0.07364        0.06115
C          2.76372        0.00974        1.43234
C          3.61907       -1.17579        1.68063
C          4.71584       -0.83019        2.34839
C          4.63200        0.61543        2.54620
O          5.38561        1.26708        3.24569
O          3.58936        1.10794        1.83035
H          1.89059        0.00393        2.09584
H          3.35869       -2.18221        1.38807
H          5.51944       -1.44416        2.71434