10

O          1.20168       -0.02777       -0.04555
C          2.51797       -0.11531       -0.04437
O          3.42578        0.79558       -0.11557
C          4.48013       -0.16598        0.04357
O          5.42177       -0.19921       -1.04405
C          3.36254       -1.17735       -0.03465
O          3.30091       -2.45776       -0.03163
H          4.98810       -0.06682        1.00906
H          4.82136       -0.06926       -1.79967
H          4.20506       -2.80103       -0.01313