9

O          1.20996       -0.04397        0.04020
C          2.47098       -0.11376        0.03550
O          3.32651        1.00323        0.02841
O          4.69870        0.46930        0.02511
C          4.60398       -0.88579        0.02624
O          5.55030       -1.66089        0.01950
C          3.19672       -1.23515        0.03664
O          2.68707       -2.51108        0.04516
H          1.72430       -2.31730        0.05108