17

O          1.11968       -0.42450       -0.20220
O          2.43926        0.04340       -0.06726
C          2.77123       -0.06519        1.31568
C          2.22206        1.12035        2.11387
C          0.69910        1.10179        2.30902
C          0.16127       -0.18645        2.93416
O          0.54628       -0.29451        4.30783
O          1.91014       -0.80482        4.32928
H          2.46578       -1.03945        1.71218
H          3.86451       -0.04922        1.37626
H          2.71072        1.15864        3.09365
H          2.49068        2.05219        1.60132
H          0.42667        1.95023        2.94865
H          0.20564        1.27451        1.34615
H         -0.93344       -0.15637        2.91782
H          0.44703       -1.08924        2.38562
H          2.16238       -0.37729        5.17238