15

O          1.20705       -0.50533        0.07015
O          2.54807       -0.10096        0.12884
C          2.84940        0.72677       -1.00549
C          1.73173        0.95834       -2.03481
C          0.68880        1.93065       -1.49518
O          1.37121        3.12939       -1.11169
O          2.18361        2.78074        0.05620
C          3.31815        2.07055       -0.45145
H          3.69022        0.23608       -1.50808
H          2.19436        1.42482       -2.91738
H          1.27215        0.02230       -2.36447
H          0.12571        1.54000       -0.64000
H         -0.03161        2.18218       -2.27652
H          4.02161        1.93333        0.37410
H          3.80315        2.67710       -1.22601