15

O          1.14363       -0.00231        0.02733
C          2.45898       -0.01740       -0.07167
C          2.97490        1.17248        0.76121
O          3.72677        1.09015        1.73578
C          2.96206       -1.30074        0.54589
C          3.77843       -2.13122       -0.02710
O          4.47917       -2.84357       -0.65693
C          2.88439        0.17237       -1.54445
C          2.35546       -0.92711       -2.45709
O          1.75928       -0.73184       -3.51546
H          2.64607        2.17236        0.41889
H          2.67312       -1.50642        1.57021
H          2.56140        1.13772       -1.95518
H          3.98292        0.16882       -1.60906
H          2.60505       -1.96121       -2.17249