11

O          1.07139        0.01833       -0.04786
O          2.47381        0.10735        0.04092
C          2.83442       -0.52827        1.26184
C          2.36371        0.29109        2.46504
O          0.95618        0.29226        2.61229
O          2.91127       -0.24613        3.65408
H          2.43992       -1.55183        1.28769
H          3.92703       -0.60691        1.28180
H          2.68912        1.33178        2.36905
H          0.58864        0.43795        1.71389
H          2.45958       -1.10150        3.78057