11

O          1.06040        0.09061       -0.12702
C          2.31568        0.05724        0.00719
O          3.01348       -0.51350        0.88849
C          3.08788        0.85914       -1.01044
C          2.71220        0.40584       -2.37984
O          2.32267        1.15174       -3.27902
C          2.99151       -1.03114       -2.76797
O          3.62024       -1.81546       -2.07431
H          2.83113        1.91854       -0.90127
H          4.17048        0.75903       -0.88707
H          2.66618       -1.27856       -3.78909