12

O          0.95923       -0.02757       -0.01802
O          2.36151       -0.09832       -0.13355
C          2.76834        1.07850       -0.83457
C          2.28319        1.06394       -2.26024
C          1.50759        2.03717       -2.75971
C          0.99434        1.99018       -4.14139
O          0.29838        2.89582       -4.58633
H          2.43330        1.96878       -0.28822
H          3.86350        1.09284       -0.83410
H          2.55977        0.19997       -2.85912
H          1.19475        2.89342       -2.17219
H          1.27453        1.11138       -4.74354