15

O          0.96792       -0.04201       -0.14762
C          2.28051       -0.05680        0.00153
C          2.88995        0.04534       -1.42731
C          3.70727        1.27495       -1.68281
O          3.59965        2.39052       -1.18973
O          4.60891        1.00418       -2.67480
O          4.86224       -0.43854       -2.65707
C          3.90283       -1.01926       -1.77852
C          4.62303       -1.62678       -0.58960
O          4.64129       -2.83158       -0.33873
H          2.75671        0.73373        0.60248
H          2.68871       -0.94773        0.49635
H          2.12084        0.04608       -2.21703
H          3.42903       -1.84037       -2.32585
H          5.14309       -0.91330        0.07255