12

O          1.01034        0.11752       -0.10894
O          2.41262        0.04377        0.00471
C          2.81945       -1.09611       -0.75489
C          2.33429       -2.37620       -0.12711
C          1.55869       -3.24646       -0.78991
C          1.04545       -4.47287       -0.15183
O          0.34948       -5.26478       -0.77715
H          2.48441       -0.98697       -1.79373
H          3.91461       -1.10187       -0.76803
H          2.61088       -2.54408        0.91063
H          1.24586       -3.08549       -1.81579
H          1.32563       -4.63731        0.90071