9

O          1.16052       -0.04354       -0.07661
C          2.36529        0.11117       -0.07250
C          3.22563        1.20758       -0.07161
C          4.56217        0.74837       -0.06153
C          4.47439       -0.61685       -0.06053
O          3.17828       -1.00736       -0.06724
H          2.88600        2.23283       -0.07622
H          5.46364        1.33816       -0.05588
H          5.19644       -1.41722       -0.05502