8

O          1.07053        0.17564       -0.08705
C          2.33588        0.11297        0.08894
O          3.04604        0.82313        0.87483
C          3.16495       -0.89106       -0.89556
O          2.81337       -2.17119       -0.85862
O          2.84958       -0.50985       -2.25248
H          4.21478       -0.60251       -0.75905
H          1.89052       -0.68284       -2.21767