12

O          0.98895       -0.01719       -0.17599
C          2.31097       -0.05342       -0.07734
C          2.81070        1.38541       -0.10534
C          3.59291        1.96524        0.83748
C          4.15422        3.38000        0.77320
O          3.77218        4.00986        1.87597
H          2.76267       -0.53083        0.80631
H          2.86344       -0.55106       -0.89056
H          2.53706        1.97265       -0.97577
H          3.87950        1.37293        1.70028
H          5.23665        3.23858        0.62306
H          3.85935        3.79611       -0.20287