9

O          1.17800       -0.08313        0.13639
C          2.43614       -0.02692        0.07641
O          3.17041        0.76425       -0.58006
C          3.18276       -1.04542        0.90696
C          2.80671       -0.85642        2.33886
O          2.46149       -1.77606        3.08467
H          2.93248       -2.05854        0.58253
H          4.26521       -0.90261        0.82066
H          2.97650        0.15253        2.75212