8

O          1.00137        0.10970        0.15085
C          2.26672       -0.06526        0.08533
O          2.97688       -0.86255        0.78266
C          3.09579        0.93539       -0.90261
O          2.74422        0.91921       -2.18317
O          2.78043        2.28595       -0.49945
H          4.14563        0.79423       -0.61630
H          1.82137        2.25395       -0.67298