11

O          1.04575       -0.08732        0.07628
O          2.45319       -0.03524        0.04503
C          2.93522       -1.12639        0.69979
O          2.30731       -2.03293        1.24377
C          4.43571       -1.09599        0.68154
O          5.17487       -0.08521        0.07501
C          5.09713       -2.09704        1.28224
O          4.55713       -3.17833        1.93108
H          4.60619        0.58952       -0.32987
H          6.17948       -2.14877        1.31328
H          3.57503       -3.12794        1.90084