11

O          1.10097       -0.06458       -0.22811
C          2.41155        0.02049       -0.09967
C          2.96266       -0.65382       -1.33770
C          3.74399       -0.02128       -2.22649
C          4.24454       -0.70397       -3.42997
O          4.97276       -0.13788       -4.24143
H          2.87303        1.01897       -0.03527
H          2.89723       -0.49112        0.74616
H          2.68207       -1.69619       -1.47534
H          4.01973        1.01643       -2.10067
H          3.94038       -1.75479       -3.56050