11

O          0.98291        0.06757       -0.03901
C          2.29100       -0.02755       -0.08501
O          2.76106        1.26509       -0.46578
C          2.81900       -0.33493        1.32632
C          2.38568       -1.70356        1.78845
O          3.17011       -2.57939        2.16164
H          2.77669       -0.73678       -0.76943
H          3.72582        1.21937       -0.47159
H          3.91591       -0.29679        1.33187
H          2.48580        0.40604        2.06539
H          1.29602       -1.86882        1.84525