11

O          1.05890       -0.04032       -0.07388
O          2.46093       -0.10356        0.03004
C          3.00857        0.54609       -1.03744
O          2.44348        1.11188       -1.96712
C          4.49561        0.51296       -0.98301
C          5.19983       -0.07934       -0.00977
C          6.67724       -0.07634       -0.01469
O          7.29876       -0.62470        0.88636
H          4.97189        1.02076       -1.81740
H          4.75875       -0.59407        0.83602
H          7.17804        0.43413       -0.85347