15

O          1.30520        0.26782       -0.44747
C          2.51328        0.01199       -0.18935
C          3.41698        1.19920       -0.41794
O          4.64430        1.18796       -0.34719
C          3.12638       -1.09796        0.25846
C          2.40379       -2.35304        0.64116
O          3.06598       -3.35473        0.93904
C          0.88995       -2.39357        0.68810
C          0.30127       -1.45955        1.71459
O         -0.75623       -0.84204        1.59491
H          2.86835        2.13237       -0.65210
H          4.20653       -1.15488        0.37409
H          0.48479       -2.22263       -0.31209
H          0.58607       -3.40534        0.98182
H          0.79277       -1.48470        2.70139