11

O          1.10698       -0.02249        0.07637
C          2.41756        0.02868       -0.06894
C          2.96868       -0.55238        1.21550
C          3.75000       -1.64282        1.24680
C          4.25055       -2.19126        2.51710
O          4.97877       -3.17994        2.55479
H          2.87905       -0.52201       -0.90432
H          2.90325        1.01193       -0.17082
H          2.68808       -0.03365        2.13004
H          4.02575       -2.16816        0.34309
H          3.94639       -1.66177        3.43411