14

O          1.18389       -0.00048       -0.00861
C          2.44509       -0.10886       -0.05521
C          3.15005        1.25247       -0.08366
C          4.00050        1.46748        1.16002
O          5.15600        1.89475        1.16762
C          3.16428       -1.25465       -0.09251
O          2.45964       -2.45880       -0.04889
C          4.64971       -1.36555       -0.16785
O          5.44105       -0.45811       -0.40556
H          3.76790        1.34168       -0.98439
H          2.44395        2.09421       -0.10880
H          3.47747        1.31314        2.11749
H          1.53428       -2.11364       -0.04462
H          5.02278       -2.38482       -0.00627