8

O          0.91513       -0.03103        0.10964
O          2.31624        0.00559        0.01567
C          2.69990        1.33165        0.31992
C          2.19058        2.27207       -0.73750
O          1.58545        3.31368       -0.49024
H          2.34458        1.62984        1.31118
H          3.79331        1.37552        0.31160
H          2.46621        2.01787       -1.77455