15

O          1.03539        0.04934       -0.14918
C          2.35073        0.05456       -0.04917
C          2.86666       -1.04715       -0.99561
O          3.61853       -0.86887       -1.95726
C          2.85382        1.39267       -0.53684
C          3.67019        2.16243        0.11545
O          4.37093        2.80903        0.81261
C          2.77615       -0.27988        1.39763
C          2.24722        0.72399        2.41449
O          1.65104        0.42505        3.44837
H          2.53782       -2.07597       -0.75381
H          2.56488        1.69860       -1.53581
H          2.45316       -1.28111        1.71092
H          3.87468       -0.28274        1.46228
H          2.49680        1.78116        2.23352