14

O          1.21599       -0.00184       -0.06973
C          2.47719        0.10963       -0.10834
C          3.18216       -0.87692        0.83014
C          4.03261       -1.87394        0.05623
O          5.18811       -2.19472        0.33856
C          3.19638        0.98127       -0.85298
O          2.49174        1.84148       -1.69673
C          4.68181        1.11397       -0.87205
O          5.47315        0.60377       -0.08488
H          3.80000       -0.33579        1.55570
H          2.47605       -1.48185        1.41598
H          3.50957       -2.40519       -0.75515
H          1.56639        1.58360       -1.46726
H          5.05488        1.75810       -1.67836