8

O          0.95462        0.26976       -0.12283
O          2.33965        0.02162       -0.06943
C          2.61577       -0.64080        1.17507
O          2.35731        0.16392        2.33568
C          1.88156       -1.91604        1.25578
O          1.28806       -2.93350        1.30933
H          3.69378       -0.83932        1.17431
H          2.61581        1.06930        2.10157