11

O          0.91142        0.12395       -0.16517
O          2.30397        0.00311       -0.01179
C          2.68002        0.66874        1.20764
O          2.29321        2.04216        1.29778
C          2.17512       -0.07696        2.41611
O          3.06161       -0.67809        3.30775
C          0.91105       -0.23326        2.68058
O         -0.23902       -0.37407        2.89477
H          3.77527        0.66868        1.21429
H          2.55328        2.46116        0.46100
H          3.98523       -0.48679        3.07413