10

C         -0.33399       -0.94628       -0.00300
C         -0.96950        0.23997        0.00335
C          0.31417        1.03818       -0.03405
C          1.04169       -0.31973        0.03903
H         -0.66768       -1.97964       -0.00215
H         -2.01450        0.53518        0.00052
H          0.49850        1.69812        0.82036
H          0.49699        1.60321       -0.95490
H          1.69604       -0.53063       -0.81357
H          1.61089       -0.48122        0.96131