12

C         -0.41815       -1.34737       -0.01136
C         -1.35485       -0.38281        0.01009
C         -0.96925        1.05618        0.00174
O          0.39984        1.25907       -0.38351
O          1.27642        0.36038        0.37868
C          1.03231       -1.00460        0.00180
H         -0.70482       -2.38967       -0.02180
H         -2.40563       -0.63641        0.01957
H         -1.23086        1.52787        0.95788
H         -1.54717        1.54806       -0.78384
H          1.50264       -1.28712       -0.94907
H          1.50323       -1.59086        0.79406