9

C         -1.20957        0.00800       -0.00114
C         -0.37469        1.15158        0.00002
C          0.91795        0.68158        0.00192
O          0.92896       -0.67660        0.00349
C         -0.36797       -1.08002        0.00234
H         -2.28989       -0.02187       -0.00339
H         -0.67528        2.18971       -0.00060
H          1.88906        1.15668        0.00279
H         -0.52444       -2.14970        0.00429