14

C          0.90618        0.01831        0.05275
C          0.77322        0.63363       -1.08716
O          1.14283        1.23806       -2.20311
C          0.17492        1.65210       -3.12732
C         -0.66081        0.57961       -3.81331
C         -2.14746        0.80281       -3.87857
O         -0.15616       -0.42236       -4.32375
H          0.12501       -0.33292        0.71301
H          1.93711       -0.14946        0.34514
H         -0.44767        2.45811       -2.72433
H          0.75405        2.11147       -3.93937
H         -2.46658        0.81810       -4.92403
H         -2.64794       -0.00357       -3.33817
H         -2.42254        1.75575       -3.42026