8

C          1.00156       -0.07239       -0.20959
C          0.77376        0.21059        1.03919
C          1.05644        0.52513        2.42717
H          0.24836       -0.24314       -0.96308
H          2.04979       -0.13173       -0.47143
H          1.66840       -0.28776        2.83057
H          1.66840        1.43251        2.44074
H          0.18995        0.67181        3.07448