9

C          0.95494       -0.00756       -0.14388
C          0.68418        0.70812        0.90227
C          1.11930        1.46583        2.00986
O          2.48938        1.56064        2.14844
C          0.37799        2.06414        2.88444
O         -0.23286        2.63582        3.72009
H          0.24943       -0.46934       -0.81888
H          2.01445       -0.14120       -0.33922
H          2.87272        1.05392        1.40775