9

C          1.04707        0.01776       -0.14178
C          0.80085        0.16058        1.12471
C          1.18683        0.31598        2.50280
O          2.39620        0.34017        2.71733
C          0.31186        0.45227        3.71141
O         -0.91222        0.44665        3.66157
H          0.31912       -0.07180       -0.93600
H          2.10472       -0.01023       -0.39004
H          0.88725        0.55747        4.64437