10

C          0.94682       -0.03852       -0.00130
C          0.67500       -0.96422       -0.86889
C          1.08757       -1.95219       -1.79486
C          2.37699       -2.03128       -1.86898
O          3.55773       -2.00647       -1.84573
C          0.26412       -2.83802       -2.62509
O         -0.95975       -2.84026       -2.62718
H          0.23943        0.55651        0.55638
H          2.00981        0.13084        0.15743
H          0.83700       -3.52812       -3.27187