10

C          0.90639       -0.01811        0.12224
C          0.63457        0.73052       -0.90206
C          1.04714        1.52952       -1.99527
C          2.33656        1.59348       -2.08278
O          3.51730        1.57341       -2.05533
C          0.22369        2.24591       -2.97546
O         -1.00018        2.24771       -2.97793
H          0.19900       -0.49932        0.78065
H          1.96938       -0.15507        0.30964
H          0.79657        2.80400       -3.73906