9

C          1.04817        0.07483       -0.06684
C          0.80194       -0.01605        1.20443
C          1.18793       -0.11495        2.58772
O          2.39729       -0.13035        2.80306
C          0.31295       -0.20169        3.80090
O         -0.91113       -0.19811        3.75087
H          0.32021        0.13183       -0.86406
H          2.10582        0.09265       -0.31604
H          0.88834       -0.26864        4.73738