9

C          1.00807       -0.05066       -0.04852
C          0.87701       -0.36905        1.20151
O          1.37427       -0.67048        2.38495
O          0.34281       -0.91872        3.35960
C          1.07138       -1.20412        4.48010
O          2.30049       -1.22677        4.56903
H          0.23566        0.13558       -0.77972
H          2.04541        0.02843       -0.35904
H          0.41378       -1.41994        5.32744