7

C          0.89212       -0.04687        0.02034
C          0.07303       -0.78440       -0.70211
O          0.09108       -1.78484       -1.63467
C         -1.09234       -1.29799       -1.23869
O         -2.26169       -1.26122       -1.40403
H          0.44153        0.68001        0.68722
H          1.97102       -0.12412       -0.00816