9

C          0.86976       -0.08945        0.07333
C          0.20740       -1.13304        0.56579
C          0.76265       -2.28947        1.10322
C         -0.13426       -3.18106        1.29974
O         -1.37446       -2.72230        0.91058
O         -1.16304       -1.28153        0.52705
H          0.33724        0.74184       -0.37539
H          1.95385       -0.06088        0.07137
H         -0.05549       -4.20593        1.61236