11

C          0.94740        0.15260       -0.10762
C          0.31177        0.61576       -1.18670
O         -1.05968        0.53020       -1.30426
O         -1.34797        0.82213       -2.72889
C         -0.14064        1.32892       -3.29185
O         -0.07527        1.79638       -4.46657
C          0.83068        1.20049       -2.37893
O          2.14036        1.59509       -2.50642
H          0.37828       -0.27957        0.70915
H          2.02503        0.14249       -0.03062
H          2.56817        1.49992       -1.65017