9

C          0.90410        0.01464        0.01939
C          0.15156        0.57461       -0.89553
O          0.23757        1.19173       -2.10418
C         -0.97004        0.99174       -1.50525
C         -2.26749        1.20517       -1.65643
O         -2.95273        1.72265       -2.57702
H          0.42921       -0.44262        0.87845
H          1.98245       -0.01248       -0.05865
H         -2.82657        0.85844       -0.78494