8

C          0.94106        0.09503       -0.08211
C          0.30725        1.22370        0.02247
C         -0.35113        2.33584        0.14765
O          0.05246        3.56588       -0.32511
O          1.29269        3.42256       -0.96935
H          0.40160       -0.84009       -0.18250
H          2.02534        0.07024       -0.08876
H         -1.29999        2.41638        0.65401