10

C          1.01158       -0.06883        0.05733
C          0.36625        0.72553        0.85519
C         -0.25888        1.54553        1.64693
C          0.05769        2.99871        1.77243
H          0.48124       -0.71692       -0.63007
H          2.09519       -0.06669        0.03948
H         -1.06500        1.16087        2.26565
H         -0.81865        3.59910        1.51082
H          0.34377        3.23473        2.80173
H          0.88174        3.28913        1.11253