7

C          1.02062        0.09948       -0.00910
C          0.36903        0.91290        0.77324
C         -0.30153        1.74998        1.57836
O         -0.52898        1.32772        2.74924
O         -0.62716        2.86269        1.07155
H          0.48173       -0.57629       -0.65960
H          2.10238        0.09755       -0.01042