8

C          1.05046        0.00566        0.07814
C          0.40871       -0.79956        0.86958
C         -0.24587       -1.57099        1.68353
O         -0.26581       -2.94845        1.64552
O          0.53638       -3.38728        0.57919
H          0.51653        0.66137       -0.60051
H          2.13463        0.01774        0.06140
H         -0.85101       -1.20504        2.49786