8

C          0.93027       -0.00663       -0.14302
C          0.28064        0.72882       -0.99458
C         -0.32078        1.40970       -1.78296
C         -0.97041        2.14515       -2.63452
H          0.40702       -0.62742        0.57583
H          2.01445       -0.02088       -0.12658
H         -2.02943        1.99449       -2.81258
H         -0.47232        2.93085       -3.19175