10

C          0.88231       -0.12204        0.14273
C          0.23452       -0.87701        0.98023
C         -0.42616       -1.65402        1.79631
C         -0.43789       -1.34871        3.24868
O         -1.00560       -1.97614        4.13196
O         -1.06006       -2.71203        1.17798
O         -1.73874       -3.48285        2.12370
H          0.35574        0.50336       -0.57239
H          1.96770       -0.11924        0.11071
H          0.14055       -0.44958        3.52273