11

C          0.89318        0.03644        0.06398
C          0.18508        0.81465        0.90811
O         -1.19566        0.89352        0.99365
O         -1.75365        0.01882        0.04487
C          0.95431        1.68214        1.84907
O          2.17899        1.72797        1.89878
C          0.19828        2.56933        2.81140
O         -1.02109        2.60211        2.84695
H          0.40296       -0.62069       -0.64880
H          1.97934        0.02792        0.05474
H          0.84258        3.17480        3.46815