12

C          1.13114       -0.08856        0.01266
C          0.39550        0.86632        0.59410
C         -1.05605        0.88248        0.45383
H         -1.54511        1.85260        0.40423
C         -1.77057       -0.27966       -0.15634
O          1.06350        1.89303        1.28198
O          0.12820        2.75247        1.88078
H          0.68774       -0.90053       -0.55612
H          2.21390       -0.08266        0.06857
H         -1.52908       -0.33126       -1.22299
H         -1.47545       -1.22087        0.32091
H         -2.85451       -0.18373       -0.05932