10

C          1.49798        0.15837       -0.18977
C          0.50594        0.75725       -0.86170
C         -0.80842        0.40322       -0.46448
C         -1.88280       -0.09051        0.08946
O         -1.89350       -1.01055        1.12170
O         -0.58462       -1.34513        1.49709
H          1.25327       -0.54400        0.59825
H          2.54954        0.30975       -0.35961
H          0.71034        1.46854       -1.65972
H         -2.89604        0.14721       -0.17725