15

C          0.91122       -0.04173       -0.01522
C          0.30060       -0.68502       -1.02373
O         -1.07912       -0.80170       -1.05898
C          1.03730       -1.43152       -2.14067
O          1.84538       -0.57488       -2.75072
C          1.91401       -2.55925       -1.54079
C          1.06124       -3.57096       -0.81286
O          1.08394       -4.78504       -1.02715
H          0.38248        0.45355        0.78359
H          1.99702        0.00312       -0.01221
H         -1.43259       -0.22596       -0.36607
H          0.26028       -1.94510       -2.72888
H          2.47412       -3.08690       -2.32278
H          2.64715       -2.17829       -0.81592
H          0.44944       -3.17472        0.01468