12

C          0.88857        0.16733        0.02094
C          0.29839       -0.27411       -1.10271
O         -1.08200       -0.31415       -1.20707
C          1.06797       -0.73827       -2.33787
O          1.84197        0.33494       -2.88591
O          1.79160       -1.96056       -2.09904
O          2.88296       -1.67976       -1.24651
H          0.34294        0.47253        0.90348
H          1.97435        0.20336        0.08384
H         -1.46694       -0.03068       -0.35737
H          0.33948       -0.99385       -3.11613
H          1.23599        1.09018       -2.95547