10

C          1.07170       -0.09303        0.02989
C          0.24213       -0.59258        0.96532
O         -1.01821       -0.56775        0.91883
C          0.98476       -1.23925        2.17624
O          2.22960       -1.24995        2.19628
C          0.32259       -1.91992        3.45084
O         -0.94767       -1.99256        3.58686
O          1.13411       -2.39231        4.33540
H          0.63194        0.37407       -0.84478
H          2.15048       -0.12984        0.09883