12

C          1.21233        0.03698       -0.09028
C          0.41276        0.43249       -1.09587
C         -1.02174        0.29162       -1.07982
H         -1.49357        0.08717       -2.04038
C         -1.74681       -0.21426        0.13445
O         -1.41267       -1.57656        0.41857
O         -1.82031       -2.33782       -0.69561
H          0.82937       -0.38549        0.82980
H          2.28842        0.09114       -0.18036
H          0.85509        0.81325       -2.01285
H         -1.46123        0.38873        1.00556
H         -2.83166       -0.11967        0.02686