14

C          0.90135        0.07364       -0.05320
C          0.27337        0.03128        1.13444
O         -1.11269       -0.00053        1.18689
C          1.00740       -0.06274        2.48458
O          1.85493       -1.21815        2.41986
C          1.86979        1.19807        2.64040
O          1.70675        2.10554        3.45915
O          0.05649       -0.07637        3.55429
O          0.74071       -0.43802        4.73575
H          0.37268        0.11933       -0.99956
H          1.98751        0.05156       -0.11264
H         -1.47982        0.06097        0.28542
H          1.24391       -1.97412        2.39212
H          2.68764        1.28653        1.90682