10

C          1.04732        0.07097        0.06136
C          0.38617       -0.44267        1.10960
C         -1.11622       -0.46344        1.15199
O          1.11808       -0.96575        2.17712
O          0.21675       -1.43861        3.14212
H          0.52146        0.48889       -0.79154
H          2.13256        0.08507        0.03260
H         -1.49279       -1.48938        1.21690
H         -1.49279        0.11394        2.00253
H         -1.54724       -0.01999        0.24700