11

C          1.15373        0.04651        0.06157
C          0.44955        0.78158       -0.80989
C         -0.96919        0.69355       -0.70551
O         -2.10290        0.48510       -0.45840
O          1.15873        1.55455       -1.72626
O          0.25843        2.29302       -2.60176
C          1.07595        3.00265       -3.44305
O          2.29900        3.01454       -3.45715
H          0.64968       -0.57442        0.79771
H          2.23646        0.05071        0.05659
H          0.46000        3.59129       -4.14090