11

C          1.14350        0.00024        0.06625
C          0.43932        0.67954       -0.84936
C         -0.97942        0.59818       -0.73970
O         -2.11313        0.40555       -0.48006
O          1.14849        1.39385       -1.81216
O          0.24820        2.07629       -2.73200
C          1.06572        2.73207       -3.61591
O          2.28876        2.74306       -3.63072
H          0.63945       -0.57357        0.83967
H          2.22623        0.00413        0.06101
H          0.44977        3.27604       -4.34911