9

C          1.07033        0.06889       -0.03167
C          0.43919        0.74735        0.93994
C         -1.07615        0.75233        0.94706
O          0.92161        1.41252        1.89252
H          0.53345       -0.46868       -0.80152
H          2.15453        0.05069       -0.05774
H         -1.47217        0.31036        1.87021
H         -1.47217        1.77122        0.85012
H         -1.49067        0.17098        0.11453