10

C          0.93261        0.04378       -0.04802
C          0.27147        0.92430        0.71834
C         -1.23093        0.95990        0.74932
O          1.00337        1.82102        1.49879
O          0.10205        2.63162        2.20430
H          0.40676       -0.67266       -0.67157
H          2.01785        0.01961       -0.06905
H         -1.60750        0.75831        1.75736
H         -1.60750        1.93048        0.41057
H         -1.66194        0.19971        0.08769