12

C          0.86094        0.05853        0.03318
C          0.27077        0.88881       -0.84324
O         -1.10963        0.96632       -0.92377
C          1.04035        1.81043       -1.78752
O          1.81435        2.76197       -1.04814
O          1.76397        1.07565       -2.79307
O          2.85534        0.42275       -2.17715
H          0.31532       -0.61120        0.68393
H          1.94672        0.01685        0.09249
H         -1.49456        0.31712       -0.30662
H          0.31186        2.40678       -2.34911
H          1.20836        3.14534       -0.39374