9

C          0.87584        0.04202       -0.01764
C          0.22178       -0.78189        0.80983
O         -1.15353       -0.84185        0.87005
C          1.00060       -1.68125        1.71308
O          2.22581       -1.71714        1.74913
H          0.36577        0.71596       -0.69450
H          1.96350        0.05970       -0.03539
H         -1.51416       -0.20431        0.22976
H          0.38160       -2.32479        2.35941