10

C          0.97581       -0.07021        0.05579
C          0.26907        0.54628       -0.90322
C         -1.23327        0.60851       -0.91300
O         -1.69516        1.96032       -0.94691
O         -1.38743        2.52249        0.30850
H          0.48373       -0.56765        0.88609
H          2.06024       -0.05586        0.05030
H          0.79012        1.06711       -1.70193
H         -1.59890        0.11920       -1.82246
H         -1.67966        0.08192       -0.06071