13

C          0.93566        0.02422        0.14071
C          0.24950       -0.80763       -0.65622
C         -1.24726       -0.83439       -0.78285
C         -1.74017       -0.44092       -2.17812
O         -1.44934       -1.44617       -3.14812
O         -0.11267       -1.25726       -3.54299
H          0.44006        0.73869        0.78567
H          2.02073        0.00376        0.13753
H          0.81227       -1.50147       -1.27906
H         -1.59650       -1.84479       -0.53982
H         -1.69330       -0.14988       -0.05092
H         -2.83343       -0.36664       -2.14490
H         -1.36535        0.54138       -2.49247