12

C          0.95875        0.03639       -0.06244
C          0.26286        0.76792        0.82036
C         -1.24846        0.84356        0.88238
C         -1.76425        0.31128        2.21196
O         -2.58282        0.87053        2.94002
O         -1.74848        2.14290        0.59703
O         -1.17485        3.04223        1.51927
H          0.47375       -0.57060       -0.82111
H          2.04621        0.05080       -0.06113
H          0.80449        1.37863        1.54362
H         -1.66769        0.17601        0.11859
H         -1.42410       -0.70596        2.46839