16

C          0.99628       -0.01934       -0.07651
C          0.30981       -1.13303        0.20087
C         -1.19611       -1.22956        0.18243
C         -1.74406       -2.24466       -0.87178
O         -1.34895       -3.47560       -0.58368
C         -3.26803       -2.24944       -0.79836
O         -3.97862       -1.82976       -1.92019
C         -3.97783       -2.51478        0.26415
O         -4.61263       -2.72848        1.23765
H          0.47855        0.89901       -0.32637
H          2.07895       -0.02888       -0.07855
H          0.82995       -2.06091        0.43381
H         -1.53615       -1.47061        1.20015
H         -1.61600       -0.23684       -0.04178
H         -1.45400       -1.82334       -1.84607
H         -3.31948       -1.73806       -2.62916