9

C          1.01429        0.08465        0.02672
C          0.32848        0.21444        1.16905
C         -1.11350        0.22019        1.21963
C         -1.77569        0.34646        2.33084
O         -2.38847        0.45977        3.32808
H          0.52548       -0.02483       -0.93675
H          2.10079        0.08497        0.02961
H          0.87317        0.32100        2.10678
H         -1.67310        0.11545        0.29778