16

C          0.97816       -0.06314       -0.10138
C          0.26991       -1.16372        0.19959
C         -1.24453       -1.21104        0.38725
C         -2.12435       -2.36451       -0.20601
O         -1.45825       -3.50007       -0.35884
C         -2.58549       -1.93794       -1.60125
O         -3.75422       -1.78975       -1.95595
C         -3.35589       -2.58902        0.69939
O         -3.34768       -2.81812        1.91396
H          0.49951        0.88924       -0.29875
H          2.06453       -0.08752       -0.12051
H          0.80595       -2.08497        0.42657
H         -1.38994       -1.19102        1.47451
H         -1.64924       -0.25603        0.02123
H         -1.77344       -1.71226       -2.31477
H         -4.33968       -2.51343        0.20193