10

C          0.99024       -0.10312       -0.01609
C          0.30171       -1.19757        0.32696
C         -1.13921       -1.24302        0.34121
C         -1.82844       -2.33728        0.68419
H          0.49966        0.82059       -0.30561
H          2.07564       -0.11173       -0.01339
H          0.84363       -2.09789        0.60915
H         -1.68102       -0.34261        0.05898
H         -2.91383       -2.32825        0.68136
H         -1.33815       -3.26113        0.97376