16

C          1.05415        0.10826       -0.08258
C          0.36370       -0.56083        0.85359
C         -1.14600       -0.65067        0.91319
C         -1.66634       -2.08724        0.71640
C         -1.20950       -3.08240        1.77666
O         -1.70767       -0.01775        2.07530
O         -1.09620       -0.55439        3.22455
H          0.55919        0.67047       -0.86618
H          2.13940        0.10425       -0.07041
H          0.91443       -1.10002        1.62160
H         -1.54847       -0.06592        0.07534
H         -2.76312       -2.07388        0.70654
H         -1.34154       -2.45435       -0.26627
H         -1.60982       -2.82851        2.76089
H         -1.56363       -4.08859        1.53833
H         -0.11844       -3.12179        1.84400