17

C          0.97091        0.10324        0.03545
C          0.28506       -0.49642        1.01647
C         -1.22320       -0.57682        1.09237
C         -1.77016       -2.03498        1.06522
O         -1.42176       -2.69738        2.16324
C         -3.29895       -1.98937        1.01551
C         -3.99608       -2.53696        0.00665
O         -3.94689       -1.30507        2.03412
H          0.45576        0.58521       -0.78664
H          2.05356        0.09055        0.03882
H          0.80758       -1.00143        1.82615
H         -1.55558       -0.03606        1.98943
H         -1.65086       -0.03139        0.23748
H         -1.43849       -2.43158        0.09191
H         -5.07364       -2.50501       -0.03725
H         -3.46429       -3.02840       -0.79970
H         -4.88347       -1.53105        1.98216