17

C          0.95565        0.04078        0.09243
C          0.26980       -0.72235       -0.76758
C         -1.23845       -0.77147       -0.86664
C         -1.78541       -0.31967       -2.25331
O         -1.43701       -1.17638       -3.20750
C         -3.31420       -0.28544       -2.19517
C         -4.01134        0.83935       -2.42427
O         -3.96214       -1.45949       -1.83817
H          0.44051        0.68629        0.79346
H          2.03830        0.04127        0.07931
H          0.79232       -1.34925       -1.48703
H         -1.57083       -1.78734       -0.61142
H         -1.66612       -0.11312       -0.09533
H         -1.45375        0.72704       -2.34838
H         -5.08889        0.87201       -2.38089
H         -3.47955        1.75407       -2.65880
H         -4.89873       -1.34380       -2.03913