13

C          0.96782       -0.06119        0.07676
C          0.26988        0.92526       -0.50366
C         -1.23849        0.99851       -0.53545
C         -1.76423        2.22212        0.21149
O         -1.74353        0.93803       -1.87792
O         -1.30807        2.09427       -2.55781
H          0.47739       -0.89690        0.56559
H          2.05349       -0.05146        0.06761
H          0.80225        1.74294       -0.98783
H         -1.64595        0.11181       -0.03395
H         -1.43118        3.15600       -0.25415
H         -2.85914        2.23289        0.19880
H         -1.42667        2.22468        1.25331