18

C          1.07294       -0.03173       -0.04608
C          0.36646        0.95386        0.52752
C         -1.15635        1.01543        0.53171
C         -1.63037        0.99022        1.99311
C         -1.68319        2.28488       -0.22754
C         -1.16613        2.27992       -1.68181
O         -3.00698        2.23295       -0.31022
H          0.56671       -0.85273       -0.54201
H          2.15532       -0.01157       -0.05675
H          0.88428        1.79135        0.98715
H         -1.54308        0.10941        0.04058
H         -1.28688        1.87765        2.53647
H         -2.72326        0.95951        2.05501
H         -1.25261        0.10330        2.51314
H         -1.20971        3.15371        0.25507
H         -1.48389        1.38076       -2.22650
H         -1.51913        3.15749       -2.23676
H         -0.07159        2.30873       -1.71106