17

C          1.00525        0.05631        0.16241
C          0.30093       -1.04520       -0.12985
C         -1.20370       -1.03297       -0.24589
C         -1.67631       -1.31483       -1.68140
O         -0.83862       -0.79083       -2.68258
C         -2.19744       -2.78968       -1.91588
O         -1.89182       -3.93483       -1.64565
O         -3.38098       -2.36994       -2.45773
C         -3.17579       -1.00842       -1.98970
O         -4.06221       -0.70559       -0.88978
H          0.49438        0.99314        0.35766
H          2.08504        0.05977        0.09437
H          0.81198       -1.95410       -0.43854
H         -1.60964       -1.77846        0.45243
H         -1.59506       -0.06375        0.08966
H         -3.32962       -0.27005       -2.78666
H         -4.04053       -1.52038       -0.36391