12

C          0.90449        0.02488        0.01073
C          0.20860       -0.61848       -0.93825
C         -1.30271       -0.68782       -1.00726
C         -1.81850       -0.03029       -2.27956
O         -2.63707       -0.51703       -3.05797
O         -1.80274       -2.00856       -0.84801
O         -1.22910       -2.81515       -1.85237
H          0.41949        0.55620        0.82418
H          1.99195        0.01066        0.00804
H          0.75024       -1.15690       -1.71683
H         -1.72195       -0.09671       -0.18288
H         -1.47835        1.00687       -2.43710