16

C          1.10159        0.03845        0.03001
C          0.41513        0.29959        1.14762
C         -1.09079        0.27975        1.24387
C         -1.63874       -0.78912        2.24352
O         -1.24363       -0.51897        3.47852
C         -3.16271       -0.71578        2.24937
O         -3.87330       -1.83138        1.81340
C         -3.87251        0.34275        2.53015
O         -4.50731        1.31304        2.75800
H          0.58387       -0.19801       -0.89188
H          2.18426        0.03628        0.03952
H          0.93526        0.51900        2.07880
H         -1.43083        1.29385        1.49972
H         -1.51068        0.07002        0.24799
H         -1.34869       -1.75718        1.80805
H         -3.21417       -2.53894        1.71139