16

C          1.04640       -0.03016       -0.11082
C          0.35595       -0.40820        0.97600
C         -1.15376       -0.47760        1.05851
C         -1.67410       -1.91137        1.27468
C         -1.21726       -2.56728        2.57249
O         -1.71543        0.45727        1.99506
O         -1.10395        0.26638        3.24898
H          0.55143        0.28834       -1.02113
H          2.13165       -0.03058       -0.09801
H          0.90667       -0.70901        1.86486
H         -1.55622       -0.15276        0.08979
H         -2.77088       -1.90133        1.26146
H         -1.34930       -2.54061        0.43536
H         -1.61758       -2.04621        3.44522
H         -1.57138       -3.59985        2.62748
H         -0.12620       -2.58608        2.64820