12

C          1.10775       -0.02117       -0.03524
C          0.42352        0.48648       -1.06888
C         -1.08149        0.57761       -1.14923
C         -1.61951        2.03535       -1.27667
O         -1.23471        2.54583       -2.44044
H          0.59253       -0.41682        0.83099
H          2.19043       -0.01219       -0.04150
H          0.95239        0.90731       -1.92147
H         -1.43457       -0.04166       -1.98544
H         -1.51848        0.13635       -0.24218
H         -2.70419        1.93993       -1.10765
H         -1.30560        2.54037       -0.34841