7

C          1.02889        0.05110        0.06913
C          0.32659       -0.66331        0.96078
O         -1.03779       -0.77868        1.10478
O         -1.64735        0.01248        0.11734
H          0.53912        0.65713       -0.68725
H          2.11302        0.04275        0.07956
H          0.80283       -1.27097        1.71919