7

C          0.89037        0.00053        0.05791
C          0.21538        0.55514        1.06553
O         -1.14553        0.60289        1.15229
H          0.39648       -0.46458       -0.78711
H          1.97604        0.00374        0.06374
H          0.68510        1.02592        1.92085
H         -1.52496        0.17098        0.36758