7

C          0.97987       -0.00163       -0.08880
C          0.27757        0.93009       -0.75010
O         -1.08681        1.08056       -0.85690
O         -1.69637        0.04875       -0.12456
H          0.49010       -0.79200        0.47218
H          2.06400        0.00926       -0.09653
H          0.75381        1.72259       -1.31258