7

C          1.05671       -0.04564        0.01542
C          0.38171        1.09805       -0.10644
O         -0.97920        1.19652       -0.11693
H          0.56281       -1.00478        0.11762
H          2.14238       -0.03903        0.01472
H          0.85143        2.06887       -0.20989
H         -1.35862        0.30584       -0.02203