16

C          0.98457       -0.11037       -0.02882
C          0.40849        1.23777       -0.24036
H         -0.62868        1.36605       -0.51559
O          0.94653        2.25014        0.50926
C          0.48359        3.53376        0.11579
C          1.01765        3.95678       -1.24710
C          0.01043        4.22102       -2.33322
O          2.22620        4.05100       -1.47937
H          0.62822       -0.80283       -0.79630
H          0.67107       -0.48035        0.95035
H          2.07763       -0.08364       -0.06626
H         -0.61155        3.57818        0.15135
H          0.84481        4.26354        0.84925
H          0.14478        5.24003       -2.70336
H          0.15741        3.49980       -3.14112
H         -1.01078        4.11834       -1.95819