15

C          1.08533       -0.34730        0.00023
C          0.47661       -0.43582       -1.35642
H         -0.55907       -0.75548       -1.42427
C          1.01491        0.41728       -2.46948
C          0.54418        1.86851       -2.36465
O          1.20474        2.53984       -1.28556
O          0.19598        2.75798       -0.25586
H          0.88245       -1.25078        0.57859
H          0.64026        0.48040        0.55102
H          2.16701       -0.19485       -0.05352
H          2.10974        0.36568       -2.47819
H          0.66492       -0.00410       -3.42020
H          0.82563        2.40313       -3.27801
H         -0.54631        1.92835       -2.27199
H          0.76246        2.49123        0.50008