13

C          1.01472       -0.05238        0.03577
C          0.45879       -1.22215       -0.70496
H         -0.52832       -1.58043       -0.44417
C          0.98303       -1.51422       -2.07701
C          0.51339       -0.45037       -3.05477
H          0.66643       -0.06087        1.07283
H          0.67770        0.87938       -0.42675
H          2.10642       -0.07366        0.03550
H          2.07499       -1.56478       -2.06086
H          0.62065       -2.49919       -2.39862
H          0.89178        0.53884       -2.77115
H          0.87290       -0.66654       -4.06459
H         -0.57930       -0.39730       -3.07945