9

C          1.07896       -0.20499       -0.10009
C          0.95881        1.24835        0.01612
C          1.07907        2.61870        0.46245
H          0.54997       -0.63634       -0.94879
H          0.69852       -0.65145        0.82179
H          2.14040       -0.45230       -0.17814
H          0.69826        2.68462        1.48678
H          2.14101        2.88389        0.48624
H          0.54914        3.35000       -0.15605