13

C          1.06978       -0.01814        0.02792
C          0.51386       -0.25661       -1.33597
H         -0.47325       -0.69055       -1.42575
C          1.03810        0.56243       -2.47483
C          0.56845        2.00151       -2.34502
H          0.72149       -0.79139        0.71905
H          0.73276        0.95077        0.40647
H          2.16148       -0.03226        0.01199
H          2.13006        0.51648       -2.50138
H          0.67572        0.13807       -3.42008
H          0.94685        2.45684       -1.42217
H          0.92797        2.60350       -3.18411
H         -0.52424        2.05547       -2.32233