7

C          0.97374       -0.12264        0.00262
C          0.39262        1.21364        0.28161
H         -0.61733        1.44481       -0.03404
H          0.90688        1.90332        0.94157
H          0.61722       -0.49812       -0.96084
H          0.68636       -0.83100        0.78411
H          2.06481       -0.06283       -0.03432