10

C          1.02308        0.06931        0.01750
C          0.46073        0.93449       -1.05595
H         -0.52916        0.71840       -1.43869
C          1.02308        2.30056       -1.24224
H          0.65064       -0.95430       -0.08817
H          0.72143        0.44723        0.99804
H          2.11453        0.04148       -0.03344
H          0.72143        2.94491       -0.41212
H          2.11453        2.27132       -1.29239
H          0.65064        2.73885       -2.17329