9

C          1.03598       -0.04101        0.10058
C          0.91583        0.50123       -1.25281
C          1.03609        1.33411       -2.42898
H          0.50699       -0.97949        0.26065
H          0.65553        0.70685        0.80049
H          2.09742       -0.18894        0.31358
H          0.65527        2.33186       -2.18797
H          2.09803        1.43552       -2.67517
H          0.50615        0.96048       -3.31089