10

C          0.89119        0.08875       -0.05552
C         -0.31427        0.11258       -0.06809
C         -1.76434        0.10992       -0.11827
O         -2.32667       -0.16916       -1.17136
C         -2.51332        0.40254        1.15015
C         -2.36213       -0.76603        2.00635
O         -2.26333       -1.78348        2.58629
H          1.95593        0.06083       -0.06862
H         -2.19428        1.36117        1.57784
H         -3.57769        0.50388        0.91201