11

C          0.94844       -0.05972        0.06144
C         -0.35542       -0.05972        0.06144
C         -1.87542       -0.05972        0.06144
C         -2.45576       -0.86594       -1.12010
O         -2.35435       -2.16310       -0.88632
O         -3.86200       -0.68601       -1.07428
H          2.01149       -0.08053        0.05004
H         -2.23795       -0.43530        1.02885
H         -2.22557        0.97890       -0.00318
H         -2.10078       -0.40774       -2.04878
H         -4.07884       -1.49365       -0.57567