12

C          0.91219       -0.05785       -0.00065
C         -0.29187       -0.03669       -0.02910
C         -1.73768       -0.06253       -0.07941
O         -2.29606       -0.63533       -1.00938
C         -2.48498        0.57793        1.08251
O         -2.19851        0.04345        2.37215
C         -2.42421       -1.29878        2.45554
H         -2.12682       -1.90320        1.61070
H         -2.34495       -1.67146        3.46534
H          1.97527       -0.09489        0.00813
H         -2.23751        1.64686        1.09801
H         -3.56467        0.51485        0.89371