9

C          0.89217        0.02691       -0.13413
C         -0.31134        0.02318       -0.15757
C         -1.72130        0.07922        0.11523
C         -2.10692        0.27046        1.51052
H         -1.44528        0.88279        2.11089
H         -3.05610       -0.05589        1.90610
O         -2.45511        0.75191       -0.92250
O         -2.50801       -0.68276       -0.81411
H          1.94330        0.04934        0.02165