9

C          1.03971        0.07155        0.05748
C         -0.26414        0.07155        0.05748
C         -1.78414        0.07155        0.05748
H         -2.26410       -0.22357       -0.86989
C         -2.40377       -0.33143        1.36109
H          2.10483        0.07321        0.05725
H         -2.10399       -1.35469        1.61359
H         -2.06574        0.32803        2.16586
H         -3.49586       -0.29446        1.31178