8

C          0.98184        0.04493       -0.01064
C         -0.22000        0.04346        0.00067
C         -1.66532        0.03931        0.03258
O         -2.30638        0.17397       -1.00271
C         -2.43031       -0.12858        1.32322
O         -1.86439       -0.26811        2.39591
H          2.04715        0.04453       -0.00760
H         -3.52461       -0.11303        1.20368