9

C          0.91603        0.03182        0.04400
C         -0.38783        0.03182        0.04400
C         -1.90783        0.03182        0.04400
C         -2.55275       -0.78088        0.89999
O         -2.47601        0.90373       -0.87437
O         -3.87699        0.81225       -0.77801
H          1.98165        0.03025        0.04565
H         -3.63670       -0.81671        0.93773
H         -2.01498       -1.42896        1.58261