15

C          0.94763        0.07480        0.04078
C         -0.35622        0.07480        0.04078
C         -1.87622        0.07480        0.04078
C         -2.41636        0.90386        1.24583
O         -2.07562        2.18672        1.15536
C         -3.93944        0.84450        1.24105
C         -4.63316        0.34264        2.27537
O         -4.58682        1.29327        0.09976
H          2.01028        0.09632        0.05097
H         -2.21878        0.48389       -0.91954
H         -2.23231       -0.96131        0.10110
H         -2.07466        0.34466        2.13216
H         -5.71018        0.29880        2.28045
H         -4.09627       -0.03437        3.13796
H         -5.51765        1.41095        0.32438