9

C          0.96955       -0.02173       -0.09274
C         -0.33430       -0.02173       -0.09274
C         -1.85430       -0.02173       -0.09274
C         -2.49922        0.59281        0.91500
O         -2.42248       -0.68104       -1.17391
O         -3.82347       -0.61186       -1.06047
H          2.03517       -0.02054       -0.09079
H         -3.58317        0.61991        0.95943
H         -1.96146        1.08288        1.71863