15

C          1.02941       -0.07249       -0.06229
C         -0.27445       -0.07249       -0.06229
C         -1.79445       -0.07249       -0.06229
C         -2.33458        1.36465        0.20994
O         -1.99385        2.21210       -0.75740
C         -3.85766        1.31912        0.24834
C         -4.55138        1.69082        1.33624
O         -4.50504        0.83444       -0.87817
H          2.09205       -0.05003       -0.07021
H         -2.13700       -0.45797       -1.03233
H         -2.15054       -0.76590        0.70993
H         -1.99289        1.59143        1.23310
H         -5.62840        1.66326        1.37071
H         -4.01449        2.03028        2.21428
H         -5.43587        1.07614       -0.80148