15

C          1.01520       -0.07659       -0.06247
C         -0.28866       -0.07659       -0.06247
C         -1.80866       -0.07659       -0.06247
C         -2.30588        1.24194       -0.62793
O         -2.54000        1.14894       -2.01079
C         -3.47799        1.82727        0.23528
O         -4.43738        1.41369        0.86066
O         -2.94553        3.07983        0.28423
C         -1.65960        2.61255       -0.21271
O         -0.66603        2.66146        0.83749
H          2.07874       -0.06325       -0.07309
H         -2.17045       -0.94648       -0.62602
H         -2.13326       -0.22367        0.97549
H         -1.30316        3.21519       -1.05683
H         -1.07434        2.16638        1.56381