8

C          1.07743       -0.03537       -0.05247
C         -0.22642       -0.03537       -0.05247
C         -1.74642       -0.03537       -0.05247
C         -2.35094        1.16056       -0.02498
O         -2.22638       -1.19514       -0.07914
H          2.13903       -0.05135       -0.05284
H         -3.43457        1.20436       -0.02397
H         -1.79651        2.08712       -0.00367