13

C          0.87404       -0.04401        0.07440
C         -0.33493       -0.03144        0.08736
C         -1.78049       -0.00250        0.15097
O         -2.33210       -0.02315        1.24700
C         -2.54149       -0.03202       -1.16112
O         -2.18546        0.88735       -2.15196
C         -2.30066        2.18751       -1.93766
C         -2.15851        3.42840       -2.27981
H          1.93644       -0.04084        0.08777
H         -2.33280       -1.00836       -1.61906
H         -3.62151       -0.01983       -0.97273
H         -1.70933        3.53819       -3.26093
H         -2.42920        4.32496       -1.73661