15

C          0.79445        0.05371        0.00694
C         -0.40996        0.08229        0.03166
C         -1.85638        0.13878        0.01197
O         -2.41217        1.08769       -0.53183
C         -2.60950       -1.04126        0.61155
O         -2.31029       -2.30726        0.03414
C         -2.52409       -2.34396       -1.32060
H         -2.27304       -1.43907       -1.85893
C         -2.28372       -3.64047       -1.99123
H          1.85768        0.04775       -0.02880
H         -2.36618       -1.09444        1.67963
H         -3.68906       -0.85504        0.54592
H         -1.21652       -3.87060       -1.94147
H         -2.85190       -4.43993       -1.51067
H         -2.57858       -3.57751       -3.04245