11

C          1.05966        0.05598        0.05750
C         -0.24419        0.05598        0.05750
C         -1.76419        0.05598        0.05750
C         -2.34453       -1.36093       -0.13848
O         -2.24312       -2.05873        0.97972
O         -3.75077       -1.20615       -0.24104
H          2.12271        0.03356        0.06527
H         -2.12672        0.52063        0.98542
H         -2.11435        0.70552       -0.75552
H         -1.98955       -1.74141       -1.10161
H         -3.96761       -1.37900        0.69224