8

C          1.11680       -0.17362       -0.20266
C         -0.08692       -0.15444       -0.18000
C         -1.52456        0.15150        0.18148
C         -2.42776        0.74626        0.88420
O         -1.92851        1.57025        1.85776
H          2.16779       -0.08678       -0.10005
H         -3.50241        0.69617        0.82502
H         -0.95089        1.52359        1.80263