10

C          1.05051       -0.05369        0.06757
C         -0.25335       -0.05369        0.06757
C         -1.77335       -0.05369        0.06757
C         -2.33787        1.34585        0.47772
O         -2.01600        2.24621       -0.45012
H          2.11301       -0.02377        0.06185
H         -2.13643       -0.34978       -0.92505
H         -2.12486       -0.80531        0.78465
H         -3.41102        1.17450        0.64133
H         -1.98331        1.51111        1.50706