13

C          0.83518       -0.06237        0.09279
C         -0.37379       -0.06706        0.07536
C         -1.81935       -0.06142        0.00570
O         -2.37096        0.48949       -0.94204
C         -2.58035       -0.67353        1.16664
O         -2.22432       -1.95866        1.58552
C         -2.33952       -2.99063        0.76615
C         -2.19737       -4.24133        0.46184
H          1.89758       -0.05864        0.07958
H         -2.37166       -0.04298        2.04149
H         -3.66037       -0.59259        0.99608
H         -1.74820       -4.81427        1.26582
H         -2.46806       -4.76071       -0.44872