15

C          0.78794        0.01490       -0.17320
C         -0.42030        0.02009       -0.18125
C         -1.87329        0.02316       -0.06869
O         -2.46765       -0.99040       -0.42978
C         -2.58364        1.28671        0.41430
C         -2.29487        1.67405        1.88884
C         -0.80757        2.00919        2.06584
O         -2.96569        2.78364        2.15655
H          1.84592        0.05137       -0.06467
H         -2.34680        2.10460       -0.28111
H         -3.66312        1.09750        0.30025
H         -2.48024        0.77090        2.48800
H         -0.47307        2.77861        1.35647
H         -0.55557        2.32029        3.08284
H         -0.20197        1.11945        1.90716