12

C          0.97078       -0.02458        0.03978
C         -0.23376       -0.02582        0.04837
C         -1.68319        0.04859        0.02114
O         -2.30300       -0.29235        1.02941
C         -2.37089        0.43626       -1.28055
C         -2.06440        1.87199       -1.77551
O         -0.79415        1.94435       -2.13547
H          2.02849        0.04921       -0.02307
H         -2.16711       -0.32502       -2.04531
H         -3.45428        0.37603       -1.08863
H         -2.80433        2.06240       -2.56729
H         -2.42725        2.53127       -0.97107