10

C          0.87214        0.05889       -0.05662
C         -0.33141        0.04872       -0.05581
C         -1.78076        0.03196       -0.10392
O         -2.33671       -0.03885       -1.19481
C         -2.52265        0.22023        1.19631
O         -2.15592       -0.75459        2.14929
O         -2.59245       -1.98712        1.63453
H          1.93745        0.05361       -0.08534
H         -2.28436        1.20909        1.60339
H         -3.60369        0.19286        1.01577