16

C          0.98007        0.00799       -0.09767
C         -0.32378        0.00799       -0.09767
C         -1.84378        0.00799       -0.09767
C         -2.38991        1.24054        0.65351
O         -3.58756        0.93230        1.15567
C         -1.47058        1.78449        1.72924
O         -0.72391        1.15580        2.47958
O         -1.54572        3.15051        1.78410
O         -2.17905        3.62873        0.55234
C         -2.46250        2.48050       -0.24282
O         -1.60005        2.47619       -1.38456
H          2.04412        0.00857       -0.07855
H         -2.21369       -0.03454       -1.13040
H         -2.15086       -0.93524        0.37801
H         -3.47018        2.62346       -0.64800
H         -0.73214        2.19326       -1.05823