8

C          1.07303       -0.04405       -0.05221
C         -0.23083       -0.04405       -0.05221
C         -1.75083       -0.04405       -0.05221
O         -2.24768       -1.36346       -0.28817
O         -2.02647       -1.63714       -1.65013
H          2.13887       -0.05132       -0.06271
H         -2.10958        0.27538        0.93108
H         -2.14174        0.65214       -0.80249