13

C          0.91795        0.04727       -0.05230
C          0.45634       -1.09518       -0.93603
C          0.99717       -2.40814       -0.53630
H          1.38614       -2.56741        0.46042
C          0.04924       -3.38047       -1.10682
O         -1.21864       -2.73046       -1.00672
O         -0.95808       -1.27707       -0.83712
H          0.56491       -0.07377        0.97734
H          0.51129        0.99699       -0.41592
H          2.01055        0.12169       -0.04321
H          0.70045       -0.88103       -1.98233
H          0.03728       -4.32338       -0.55775
H          0.26189       -3.57045       -2.16286