10

C          1.11288        0.06480       -0.03563
C          0.49946        1.04026       -0.97524
C          0.52726        2.51065       -0.64680
O          1.41586        1.93738       -1.61579
H          0.80329       -0.95395       -0.28948
H          0.78378        0.26858        0.98842
H          2.20631        0.10416       -0.06029
H         -0.30868        0.63671       -1.56745
H         -0.29191        3.12291       -1.00064
H          0.96427        2.83401        0.28916