13

C          0.96177        0.13034       -0.02742
C          0.49901        0.70694        1.29010
C          1.48104        0.61060        2.47129
C          1.03088        2.05123        2.73258
O          0.60871        2.16627        1.33847
H          0.50615        0.65554       -0.87255
H          0.67303       -0.92405       -0.09521
H          2.04953        0.18503       -0.13879
H         -0.53299        0.41442        1.52819
H          1.24243       -0.12390        3.23818
H          2.53706        0.53283        2.18766
H          1.81727        2.75906        2.99455
H          0.17733        2.16183        3.41229