13

C          0.90649        0.14280       -0.01998
C          0.43079       -0.19729        1.34780
O          0.06093        0.86297        2.16793
O         -0.59128        0.21325        3.33290
C         -0.18445       -1.16440        3.30914
C          0.30529       -1.38074        1.94040
O          0.53162       -2.66605        1.54801
O          1.03064       -2.65626        0.24022
H          0.55233        1.12774       -0.33804
H          0.53496       -0.56976       -0.76053
H          2.00081        0.14501       -0.04519
H          0.60207       -1.31119        4.05554
H         -1.04511       -1.79466        3.54865