13

C          1.10222        0.19252        0.04776
C          0.31468        1.48772        0.28419
O         -0.02084        2.00361       -1.03788
O          0.37027        3.43058       -1.08475
C          0.63627        3.73747        0.21994
C          0.73631        2.70547        1.02922
O          0.71009        2.84305        2.39826
O          0.61884        1.56128        2.94641
H          0.77514       -0.26189       -0.90123
H          0.85736       -0.53994        0.82548
H          2.19145        0.28133       -0.00431
H         -0.62413        1.16676        0.73840
H          0.61021        4.79669        0.44534