12

C          1.00840       -0.02474        0.01629
C          0.55267        0.12574       -1.38976
O          0.38444        1.40401       -1.89704
O          0.17659        1.18984       -3.34846
C         -0.15517       -0.20878       -3.50458
C          0.25887       -0.86013       -2.23118
O          0.26841       -2.11869       -2.20263
H          0.67143       -0.97887        0.43560
H          0.61959        0.76842        0.66188
H          2.10159       -0.00536        0.05634
H         -1.23439       -0.28218       -3.67925
H          0.38511       -0.59300       -4.37713