13

C          0.91694       -0.02952        0.05970
C          0.39415        1.09118        0.89317
C         -0.37979        2.07821        0.41048
C         -0.85185        3.24246        1.23437
O         -0.44634        4.48265        0.65136
O          0.95226        4.56317        0.80765
H          0.58895        0.04612       -0.98164
H          0.56902       -0.98495        0.46219
H          2.01120       -0.02308        0.07382
H          0.70239        1.10499        1.93635
H         -0.66024        2.08344       -0.63927
H         -1.94719        3.23617        1.25030
H         -0.51149        3.18839        2.27538