12

C          1.08878        0.03453       -0.02678
C          0.57997        1.16040        0.81113
C         -0.19390        2.14903        0.33807
C         -0.70271        3.27490        1.17599
H          0.75603        0.11326       -1.06652
H          0.73288       -0.91895        0.37472
H          2.18280        0.02828       -0.01758
H          0.86845        1.15323        1.86002
H         -0.48238        2.15620       -0.71081
H         -0.34681        4.22838        0.77448
H         -1.79673        3.28115        1.16679
H         -0.36996        3.19617        2.21573