15

C          0.95577        0.02835       -0.06491
C          0.44067        1.32635        0.45419
C         -0.33494        2.13811       -0.28135
C         -0.84134        3.49193        0.14878
C         -0.35324        4.65915       -0.76311
O         -0.86999        4.51629       -1.97817
H          0.62338       -0.16484       -1.09041
H          0.60616       -0.79258        0.56708
H          2.04982        0.03321       -0.06028
H          0.73722        1.62973        1.45287
H         -0.61834        1.85930       -1.29422
H         -1.93887        3.46443        0.19076
H         -0.50342        3.69846        1.17393
H         -0.62930        5.56973       -0.20807
H          0.74377        4.66950       -0.65405