13

C          1.06476       -0.07781        0.02008
C          0.54197        1.31376       -0.09901
C         -0.23197        1.73263       -1.11477
C         -0.70403        3.15045       -1.26991
O         -0.29852        3.69232       -2.52862
O          1.10009        3.85622       -2.46500
H          0.73678       -0.71160       -0.80962
H          0.71684       -0.52619        0.95486
H          2.15902       -0.06362        0.02639
H          0.85022        2.01574        0.67277
H         -0.51241        1.04054       -1.90409
H         -1.79936        3.15630       -1.25381
H         -0.36366        3.80017       -0.45475