18

C          0.94880       -0.06477       -0.07741
C          0.44429       -1.41851        0.28391
C         -0.34804       -1.64293        1.34345
C         -0.83773       -3.00561        1.77351
C         -0.33341       -3.40479        3.19121
C         -0.84569       -2.40231        4.24571
O         -0.85359       -4.58633        3.49296
H          0.61227        0.70254        0.62798
H          0.59726        0.21060       -1.07534
H          2.04284       -0.06505       -0.07808
H          0.75623       -2.25879       -0.32913
H         -0.66267       -0.80857        1.96197
H         -1.93679       -2.98706        1.74159
H         -0.51955       -3.75938        1.03870
H          0.76099       -3.28917        3.17427
H         -1.94168       -2.33883        4.25476
H         -0.50823       -2.66643        5.25473
H         -0.46477       -1.39416        4.04955