8

C          1.06953        0.05491       -0.04987
C          0.56551        1.31892       -0.70909
H          0.71478       -0.82800       -0.58990
H          0.71478       -0.00755        0.98322
H          2.16342        0.03635       -0.04019
H          0.92027        1.38138       -1.74218
H         -0.52837        1.33748       -0.71877
H          0.92027        2.20182       -0.16906