17

C          1.04524       -0.04740        0.01444
C          0.52844        1.06848       -0.84831
O         -0.18390        0.89965       -1.83309
C          0.95093        2.46679       -0.43683
O          1.76113        2.60619        0.47418
C          0.36699        3.62010       -1.14585
H         -0.60892        3.55721       -1.60300
O          0.89926        4.86541       -0.93361
C          0.38920        5.88020       -1.78394
C          0.87480        5.72282       -3.20710
O          0.12035        5.61957       -4.17010
H          0.68839       -1.00900       -0.36348
H          0.68075        0.08429        1.03671
H          2.13887       -0.05240        0.00201
H         -0.70471        5.92289       -1.74808
H          0.77170        6.83903       -1.41648
H          1.97047        5.71955       -3.33759