17

C          0.95030       -0.10526        0.00615
C          0.42311        1.28510        0.26676
O         -0.27816        1.81138       -0.60586
C          0.81518        2.00209        1.57614
O          0.40411        1.27954        2.61296
C          2.33508        2.11764        1.73506
O          2.96897        3.17105        1.83466
C          0.15483        3.39613        1.63323
C          0.59880        4.27882        0.47995
O         -0.16569        4.86575       -0.28955
H          0.59272       -0.43577       -0.97483
H          0.58021       -0.80496        0.75721
H          2.04100       -0.09527       -0.01886
H          2.89322        1.16553        1.73552
H         -0.94080        3.32439        1.59573
H          0.41650        3.92934        2.55802
H          1.68192        4.44593        0.38471