16

C          1.00911        0.20710       -0.09744
C          0.46195        1.38133        0.67746
O         -0.24535        2.21112        0.08600
C          0.86458        1.57134        2.13903
C          0.34668        0.49170        3.12415
C          0.99796       -0.87826        2.87307
O          0.72894        0.85451        4.33928
H          0.79467        0.34090       -1.16112
H          0.51262       -0.72122        0.17402
H          2.09138        0.13208        0.03394
H          1.95760        1.68039        2.17805
H          0.45682        2.55211        2.43553
H         -0.72336        0.36580        2.90562
H          2.09260       -0.81627        2.82532
H          0.71601       -1.62104        3.62753
H          0.65262       -1.31209        1.93924