14

C          1.07779       -0.07185        0.02781
C          0.57112       -1.42655       -0.41540
O         -0.16231       -2.07994        0.33141
C          0.95899       -1.90403       -1.81888
O          0.48402       -0.91371       -2.74118
C          2.47271       -2.04234       -1.93887
O          3.10350       -3.09724       -2.02703
O          0.37540       -3.19558       -1.97189
O          0.45663       -3.53795       -3.33804
H          0.71498        0.13804        1.03860
H          0.70371        0.70852       -0.63973
H          2.16917       -0.06129        0.04976
H         -0.48514       -1.01892       -2.76782
H          3.02895       -1.09365       -1.88490