17

C          1.10739        0.04977        0.01193
C          0.56713        0.67533       -1.29246
O          1.00725       -0.08996       -2.27737
C         -0.97574        0.68754       -1.28570
C         -1.52399        1.53046       -0.15378
O         -2.23024        2.52524       -0.30531
C          1.08464        2.11163       -1.44104
O          1.74441        2.70403       -0.58157
C          0.70121        2.94906       -2.66535
O         -0.04545        2.62195       -3.57513
H          0.74175       -0.97668        0.15179
H          0.80541        0.62542        0.89338
H          2.20478        0.02104        0.03424
H         -1.39818        1.07933       -2.21865
H         -1.38409       -0.32390       -1.16048
H         -1.27326        1.18789        0.86337
H          1.13897        3.95716       -2.63038