7

C          1.06267       -0.06199        0.05822
C          0.55190       -1.49137        0.00013
O         -0.16506       -1.84758        0.97612
O          0.91169       -2.14165       -1.02097
H          0.71814        0.44733        0.96335
H          0.70287        0.49675       -0.81092
H          2.15676       -0.05796        0.05464