11

C          1.04356        0.11925       -0.11061
C          0.52842       -0.15130       -1.49647
O         -0.17813       -1.11261       -1.77682
O          0.95472        0.80914       -2.37178
O          0.39957        0.45159       -3.68413
C          0.81118        1.39479       -4.57279
O          1.51303        2.37152       -4.35418
H          0.68548       -0.66570        0.56479
H          0.66750        1.07676        0.25792
H          2.13605        0.10104       -0.09748
H          0.40406        1.14377       -5.56595