14

C          1.07674       -0.03754        0.02569
C          0.58613       -1.42679       -0.24251
O          0.07120       -2.10500        0.63778
C          0.88426       -2.00263       -1.61927
O          1.58905       -1.35294       -2.39205
C          0.38684       -3.40809       -1.94392
O          0.89400       -4.43820       -1.09971
O         -1.01344       -3.45355       -2.20620
O         -1.69969       -3.22888       -1.00584
H          0.72414        0.27029        1.01500
H          0.68714        0.66550       -0.71343
H          2.16957       -0.03553        0.02972
H          0.81932       -3.63588       -2.92722
H          1.86444       -4.38786       -1.12804