15

C          0.95225       -0.32436       -0.02195
C          0.38556       -0.57403       -1.40020
O         -0.37697       -1.52014       -1.58601
C          0.80236        0.31393       -2.56206
C          0.29306        1.73985       -2.47715
O          1.05021        2.48583       -1.52399
O          0.23242        2.58206       -0.32791
H          0.77302       -1.19960        0.60850
H          0.43563        0.49155        0.47374
H          2.02794       -0.13961       -0.06774
H          1.89212        0.28259       -2.65909
H          0.38347       -0.14241       -3.46910
H          0.46552        2.23389       -3.44125
H         -0.78450        1.79031       -2.28032
H          0.95765        2.42823        0.30725