17

C          1.01042        0.06103       -0.00922
C          0.56241        1.25297       -0.86074
C          1.01588        1.13065       -2.32413
C          0.48777       -0.09772       -3.06162
O         -0.90760        0.05657       -3.31287
O         -1.58915       -0.94617       -2.50624
O         -0.82520        1.60798       -0.80635
O         -1.55671        0.52246       -0.29684
H          0.60506       -0.88725       -0.37526
H          0.67675        0.16736        1.02733
H          2.10294       -0.01814       -0.01494
H          1.07453        2.13118       -0.44820
H          0.67874        2.02466       -2.86443
H          2.11175        1.11656       -2.35345
H          0.98268       -0.16537       -4.03651
H          0.71383       -1.03240       -2.53702
H         -1.92803       -0.33196       -1.81114