17

C          0.98918       -0.14423       -0.03356
C          0.47975       -0.80659        1.24430
C          1.03125       -0.19641        2.54914
C          0.81076        1.26855        2.73727
H          0.71986        1.73487        3.70798
O          1.33540        2.11809        1.80070
O          0.54133        3.32402        1.90172
O         -0.95315       -0.92370        1.25374
O         -1.50159        0.42183        1.16573
H          0.59414        0.86793       -0.15966
H          0.66039       -0.70213       -0.91534
H          2.08287       -0.09460       -0.03508
H          0.83406       -1.84615        1.21882
H          0.57966       -0.72156        3.40036
H          2.11168       -0.37890        2.59871
H          0.73074        3.63717        0.99931
H         -2.41951        0.17963        1.40136