17

C          1.00474       -0.06507        0.03171
C          0.45846        0.98474       -0.95555
O          0.83663        0.61086       -2.16875
C         -1.09599        0.99364       -0.92398
C         -1.65465        1.36596        0.43194
C         -2.40856        2.45362        0.63562
C         -2.89403        2.79332        1.98356
O         -3.60584        3.77347        2.18409
H          0.63378       -1.07344       -0.19432
H          0.70377        0.16793        1.05848
H          2.10049       -0.09318        0.03062
H          0.78507        1.96262       -0.57078
H         -1.47653        1.69552       -1.68077
H         -1.49713        0.00546       -1.19212
H         -1.40080        0.70075        1.25194
H         -2.67319        3.12569       -0.16963
H         -2.58597        2.12165        2.80135