13

C          0.92031       -0.05667       -0.06362
C          0.40084        1.21998        0.54685
O         -0.25195        2.01991       -0.14122
C          0.80235        1.55094        1.97925
C          0.30200        0.54899        3.04743
O          0.97699       -0.58268        2.92665
H          0.59984       -0.12622       -1.10612
H          0.51527       -0.92744        0.45249
H          2.01316       -0.05857       -0.02841
H          1.88993        1.69626        2.01431
H          0.35844        2.53146        2.20704
H          0.41569        1.08213        4.00351
H         -0.79380        0.53311        2.93399