8

C          0.97472        0.07892       -0.13028
C          0.36455       -0.84641       -1.14566
O         -0.32688       -1.80634       -0.81771
C          0.60305       -0.59297       -2.55364
O          0.76228       -0.43687       -3.71239
H          0.68207       -0.27602        0.86456
H          0.60043        1.09955       -0.24481
H          2.06647        0.06476       -0.18276