18

C          1.25064       -0.07126        0.02633
C          0.62056        0.19688       -1.35637
O          0.97940       -0.79188       -2.15452
C         -0.92890        0.21850       -1.29250
C         -1.61893       -0.75983       -0.38200
O         -1.30170       -1.89926       -0.06492
O         -2.81167       -0.22319        0.01962
O         -2.71527        1.23175       -0.08667
C         -1.52433        1.52463       -0.80884
C         -0.66426        2.40323        0.07918
O         -0.20388        3.49281       -0.26057
H          0.94056       -1.02694        0.46204
H          0.97624        0.68814        0.75664
H          2.34387       -0.05970       -0.01410
H          0.93220        1.21064       -1.64934
H         -1.35488        0.03533       -2.29441
H         -1.81691        2.14723       -1.66081
H         -0.45989        2.01480        1.09008