16

C          1.07726       -0.15303       -0.16636
C          0.53010        0.97204       -1.01106
O         -0.17720        0.69456       -1.99156
C          0.93272        2.41223       -0.69778
C          0.41483        2.97623        0.65055
C          1.06611        2.27847        1.85594
O          0.79709        4.24256        0.71814
H          0.86281       -1.10953       -0.65055
H          0.58077       -0.21004        0.79915
H          2.15953       -0.05459       -0.05148
H          2.02575        2.48569       -0.78731
H          0.52496        3.02169       -1.52141
H         -0.65521        2.72807        0.69551
H          2.16074        2.25439        1.78149
H          0.78415        2.73873        2.80941
H          0.72076        1.25309        1.94996