12

C          0.98311       -0.01785        0.09740
C          0.46614       -0.86036       -1.06456
C          0.98310       -2.29465       -1.01180
O         -0.96137       -0.81528       -1.15708
O         -1.47937       -1.38814        0.01879
H          0.65609       -0.41860        1.06222
H          0.59865        1.00517        0.02899
H          2.07722        0.01822        0.09709
H          0.83369       -0.40825       -1.99258
H          0.65608       -2.80738       -0.10153
H          0.59864       -2.87134       -1.85954
H          2.07721       -2.31664       -1.04039