17

C          0.98225        0.23162       -0.04295
C          0.47282       -0.28784       -1.38526
C          1.02432       -1.66982       -1.79154
C          0.80383       -2.78048       -0.81794
H          0.71293       -3.81679       -1.11090
O          1.32847       -2.64075        0.43878
O          0.53441       -3.51468        1.27587
O         -0.96007       -0.21739       -1.47930
O         -1.50852       -1.04203       -0.41244
H          0.58721       -0.34379        0.79923
H          0.65346        1.26187        0.12250
H          2.07595        0.19992       -0.00474
H          0.82713        0.41934       -2.14765
H          0.57274       -1.96029       -2.74861
H          2.10475       -1.58618       -1.96114
H          0.72381       -3.04550        2.10791
H         -2.42644       -1.05834       -0.74996