8

C          0.96324        0.00674        0.00692
C          0.35308       -0.58162       -1.23447
O         -0.33835       -1.59548       -1.20124
C          0.59157        0.07206       -2.50701
O          0.75081        0.55984       -3.56962
H          0.67060       -0.62333        0.85469
H          0.58896        1.01631        0.19552
H          2.05500        0.00853       -0.04741