15

C          1.07905       -0.05934        0.31481
C          0.51236       -1.38244       -0.14485
O         -0.25017       -2.00910        0.58791
C          0.92916       -1.95817       -1.48908
C          0.41985       -1.18367       -2.68932
O          1.17701        0.01302       -2.87079
O          0.35922        1.10208       -2.36698
H          0.89982        0.05979        1.38687
H          0.56242        0.77326       -0.15231
H          2.15474       -0.00845        0.13139
H          2.01892       -2.05808       -1.50945
H          0.51027       -2.97239       -1.53723
H          0.59232       -1.78068       -3.59329
H         -0.65771       -0.98744       -2.63658
H          1.08445        1.57973       -1.92095