14

C          1.04244       -0.06715       -0.09180
C          0.48492       -0.19117       -1.47739
O         -0.14053       -1.15365       -1.89784
O          0.79493        0.94342       -2.16897
O          0.36519        0.75881       -3.55783
C          0.94704        1.84421       -4.28756
O          0.34118        3.06872       -3.87487
C          2.41044        1.89138       -4.08333
O          3.56770        1.90287       -3.85768
H          0.70241       -0.90738        0.51787
H          0.68305        0.86006        0.36314
H          2.13516       -0.07172       -0.13032
H          0.71949        1.69769       -5.34901
H         -0.61355        2.91390       -3.96269