7

C          1.04164        0.08577       -0.00192
C          0.53086        1.11864       -0.99172
O         -0.18610        0.66227       -1.92509
O          0.89066        2.30533       -0.75240
H          0.69710       -0.91962       -0.26242
H          0.68184        0.32473        1.00331
H          2.13573        0.08555        0.00346