13

C          1.06952       -0.02309        0.11027
C          0.53233       -0.58480        1.44103
O          0.91551        0.25149        2.39163
C         -1.01489       -0.60531        1.43853
C         -1.56111       -1.50582        0.35463
O         -2.30869       -2.46540        0.54578
H          0.69936        0.99079       -0.09027
H          0.76604       -0.65255       -0.73255
H          2.16575        0.00280        0.09515
H          0.85787       -1.63492        1.47554
H         -1.40609       -0.96571        2.39906
H         -1.43367        0.39552        1.26435
H         -1.30075       -1.21888       -0.67694