12

C          1.04317        0.02357        0.14168
C          0.49122        1.41517       -0.02642
O         -0.20268        1.61905       -1.02365
C          0.83783        2.44770        1.04848
O          1.64116        2.09517        2.14373
C          0.39706        3.71878        0.99548
O         -0.31967        4.37715        0.19313
H          0.70378       -0.58381       -0.70560
H          0.65950       -0.43469        1.05574
H          2.13507        0.03821        0.12567
H          1.89050        1.16736        2.06756
H          0.74849        4.30141        1.84928