11

C          0.98424        0.00466        0.13208
C          0.43880        1.37581        0.40026
O         -0.26263        1.96956       -0.40730
C          0.78922        2.01800        1.72881
O          1.49426        1.40693        2.52648
C          0.31615        3.38890        2.14041
O         -0.38843        4.08690        1.42933
H          0.64357       -0.31434       -0.85864
H          0.60713       -0.70751        0.86950
H          2.07643        0.02171        0.12945
H          0.65981        3.70669        3.13586