12

C          0.99010        0.00680       -0.16801
C          0.48034       -0.02487       -1.57981
O         -0.24015       -0.92123       -2.00808
O          0.92914        1.06071       -2.28476
O          0.30457        0.97156       -3.60375
C          0.85049        1.95666       -4.37002
H          1.87128        2.24282       -4.19433
O          0.32427        2.26862       -5.58819
H          0.63118       -0.88258        0.36241
H          0.61065        0.88759        0.35576
H          2.08220       -0.01223       -0.15794
H          0.80883        2.97766       -6.04365