12

C          1.00770       -0.08402        0.07897
C          0.49939       -1.24997        0.90082
O         -0.21289       -1.04148        1.89391
C          0.88625       -2.67483        0.47433
O          1.61637       -2.78429       -0.55261
C          0.39583       -3.66129        1.25534
O         -0.39611       -3.54057        2.36906
H          0.64282        0.85061        0.51647
H          0.63000       -0.14677       -0.94514
H          2.10066       -0.05761        0.09095
H          0.60417       -4.70402        1.04935
H         -0.53369       -2.57338        2.48110