17

C          0.97815        0.04086        0.02457
C          0.43789        1.11652       -0.94275
O          0.87801        0.78460       -2.14505
C         -1.10498        1.12523       -0.93184
C         -1.65323        1.47287        0.43597
O         -2.35947        2.45027        0.67520
C          0.95540        2.50096       -0.53244
O          1.61517        2.72089        0.48799
C          0.57198        3.74196       -1.34494
O         -0.17468        3.78646       -2.31072
H          0.61251       -0.96137       -0.23752
H          0.67617        0.23692        1.05893
H          2.07554        0.00579        0.03424
H         -1.52742        1.84316       -1.64492
H         -1.51333        0.14246       -1.20175
H         -1.40250        0.76834        1.24565
H          1.00974        4.66056       -0.92822