11

C          1.05116        0.08463        0.01483
C          0.54449       -0.19331        1.42068
C          0.10987       -0.43173        2.62663
C         -0.39680       -0.70968        4.03248
C         -0.21108        0.55222        4.76735
O          0.05634        1.58842        5.26366
H          0.69084        1.05943       -0.32540
H          0.69085       -0.68732       -0.67080
H          2.14466        0.08637        0.00615
H         -1.41906       -1.09254        4.02794
H          0.25781       -1.46082        4.48897