14

C          0.90577       -0.03260        0.00765
C          0.39910       -0.27224       -1.40524
C         -0.03552       -0.47780       -2.61722
C         -0.54219       -0.71744       -4.03011
C          0.00607       -2.03259       -4.62618
O         -0.62941       -3.07218       -4.11311
O         -0.43684       -2.07534       -5.97327
H          0.54559       -0.82284        0.67221
H          0.54560        0.93252        0.37458
H          1.99928       -0.03112        0.01665
H         -1.64121       -0.69702       -4.02978
H         -0.22969        0.12387       -4.66252
H          1.09860       -1.96438       -4.64651
H         -1.24214       -2.60256       -5.82717