16

C          0.90729        0.07926        0.02831
C          0.43687       -0.93891       -1.00185
C          1.01119       -2.32205       -0.71775
C          0.47739       -3.00421        0.48001
H         -0.52453       -2.79310        0.83319
C          0.87808       -4.41015        0.27641
O          0.78272       -4.60090       -1.13925
O          0.68134       -3.24975       -1.75373
H          0.55825       -0.18014        1.03275
H          0.52945        1.07669       -0.21474
H          2.00136        0.12872        0.05113
H         -0.65908       -0.96713       -1.03062
H          0.75345       -0.61609       -2.00151
H          2.10421       -2.25878       -0.66156
H          0.23651       -5.11744        0.80353
H          1.91985       -4.56301        0.57481