18

C          1.04071        0.04283        0.08617
C          0.54303        1.41480        0.51001
C          1.02510        2.47014       -0.43465
C          0.18375        3.23449       -1.14835
C          0.59503        4.25953       -2.17440
C          0.06063        3.95524       -3.60763
O         -1.26484        4.03828       -3.61182
H          0.68302       -0.21460       -0.91700
H          0.67968       -0.72105        0.78136
H          2.13518        0.00557        0.07703
H         -0.55271        1.39835        0.55465
H          0.90223        1.64668        1.51827
H          2.09591        2.58958       -0.56721
H         -0.89255        3.11178       -1.04698
H          0.26548        5.25198       -1.83825
H          1.69202        4.30406       -2.22480
H          0.60630        4.66010       -4.25474
H          0.53029        2.99941       -3.89298