15

C          0.94317       -0.06643       -0.10191
C          0.43603        0.13569        1.31798
C          0.89923        1.46208        1.94056
C          0.43580        2.69956        1.17270
O          0.51979        1.54281        3.32195
O         -0.88576        1.56239        3.37435
H          0.55539        0.70060       -0.77901
H          0.61495       -1.03706       -0.48663
H          2.03608       -0.03679       -0.13533
H         -0.65742        0.07248        1.32068
H          0.78357       -0.69345        1.94808
H          1.99431        1.46822        1.94511
H         -0.65507        2.73819        1.09722
H          0.75630        3.61107        1.68777
H          0.84852        2.72122        0.15966