15

C          1.03025        0.00762        0.01830
C          0.52311       -1.27249       -0.62842
C          0.98631       -2.54207        0.10309
C          0.52288       -2.62045        1.55734
O          0.60686       -3.72114       -0.62116
O         -0.79868       -3.77532       -0.63508
H          0.64247        0.12399        1.03480
H          0.70202        0.87854       -0.55756
H          2.12316        0.01806        0.06173
H         -0.57034       -1.23855       -0.68181
H          0.87065       -1.31479       -1.66896
H          2.08139       -2.54930        0.10553
H         -0.56799       -2.58065        1.63220
H          0.84338       -3.56444        2.01013
H          0.93559       -1.80204        2.15478