14

C          0.95189       -0.14609       -0.08145
C          0.45581       -0.67206        1.25739
C          0.94281        0.16140        2.44372
C          0.44673        1.59927        2.40286
H          0.56559        0.85698       -0.28666
H          0.61499       -0.79763       -0.89360
H          2.04467       -0.10611       -0.10429
H         -0.63862       -0.70822        1.25297
H          0.80761       -1.70384        1.38319
H          0.59101       -0.30680        3.37172
H          2.03724        0.15329        2.47924
H         -0.64605        1.63431        2.37300
H          0.78363        2.14239        3.29119
H          0.83303        2.13242        1.52879