15

C          1.08925        0.05892        0.02421
C          0.63198        1.19619       -0.87881
C          1.03327        0.99234       -2.34270
C          0.49270       -0.28321       -2.99043
O         -0.92155       -0.22569       -3.15584
O         -1.48818       -0.66673       -1.94819
H          0.68440       -0.90610       -0.29103
H          0.75303        0.22988        1.05098
H          2.18102       -0.01527        0.02625
H         -0.45285        1.32475       -0.79549
H          1.07500        2.13156       -0.51807
H          0.67241        1.85733       -2.91577
H          2.12711        0.99204       -2.41325
H          0.92083       -0.37196       -3.99223
H          0.79385       -1.19269       -2.45181