12

C          1.03959        0.15185        0.06343
C          0.55283        0.87208       -1.18539
C          1.04583        0.23549       -2.48249
O          0.43922       -1.03568       -2.69907
O          1.25459       -1.98096       -2.05343
H          0.62487       -0.85815        0.13228
H          0.72647        0.69388        0.96026
H          2.13257        0.08022        0.07215
H         -0.54421        0.88114       -1.17688
H          0.89405        1.91249       -1.14690
H          0.74723        0.87206       -3.32068
H          2.14243        0.16416       -2.51258