7

C          0.95806       -0.08599        0.02626
O          0.46660       -0.37729       -1.27582
O          0.98230        0.68296       -2.12832
H          0.59909       -0.85600        0.71375
H          0.58706        0.88808        0.35801
H          2.05188       -0.09255        0.02452
H          0.57746        0.35864       -2.95289