10

O          1.05213        0.35459       -0.40562
C          1.95234       -0.30307       -0.02105
C          2.97258       -1.17223        0.58772
C          2.60538       -1.23774        2.06124
C          2.29039       -1.29394        3.32523
C          1.96457       -1.36720        4.72902
O          2.74873       -1.86415        5.52454
H          2.85755       -2.17528        0.16166
H          4.00258       -0.84304        0.43838
H          0.98607       -0.95543        5.02179