9

O          1.17413       -0.28122        0.39002
C          2.00227        0.17006       -0.31168
C          2.88909        0.76898       -1.24296
C          2.32438        1.42447       -2.26218
C          3.07468        2.10603       -3.32195
O          2.47850        2.68448       -4.22139
H          3.96137        0.67696       -1.09988
H          1.24348        1.48295       -2.35311
H          4.17327        2.06861       -3.26376