9

O          0.99636        0.03987       -0.45144
C          1.89227       -0.11055        0.29449
C          2.91110       -0.28508        1.33197
C          2.63584        0.72946        2.39451
C          2.04163        0.43278        3.50706
O          1.50738        0.12440        4.50820
H          2.80664       -1.30122        1.72739
H          3.94487       -0.18693        0.97686
H          2.75926        1.77893        2.14142