8

O          1.26325       -0.51791        0.44645
C          2.08171        0.04690       -0.18727
C          3.00310        0.85148       -1.00107
O          3.00964        0.40486       -2.36764
C          2.46462        2.21569       -0.93004
O          1.88330        3.23295       -0.81834
H          4.04104        0.78554       -0.64523
H          2.99553       -0.56738       -2.36161