8

O          1.19429        0.60750        0.15227
C          2.01275       -0.22314       -0.02277
C          2.93415       -1.32924       -0.31634
O          2.94068       -2.29296        0.75053
C          2.39566       -1.94578       -1.53535
O          1.81434       -2.35455       -2.47354
H          3.97208       -0.98769       -0.43602
H          2.92657       -1.80440        1.59113