7

O          1.35832       -0.03459       -0.42610
C          2.36250       -0.07161        0.24201
C          3.62120       -0.71709       -0.06900
C          3.69189        0.69572        0.24200
O          4.16203        1.58380       -0.42614
H          4.00786       -1.38707        0.68043
H          3.79763       -1.02284       -1.09366