11

O          0.99169        0.04909       -0.05910
C          2.21317        0.03869       -0.04622
C          3.02992        1.22737       -0.04337
C          4.26768        0.77278       -0.08879
C          5.44189        1.56460       -0.21534
H          6.30867        1.27265       -0.78665
O          5.32592        2.90056        0.05100
O          4.40328       -0.59228       -0.09311
O          3.00858       -1.06845       -0.05675
H          2.68052        2.24064       -0.06774
H          6.15178        3.39184       -0.09937