9

O          0.96975       -0.02741        0.01776
C          2.18207       -0.03832       -0.01385
C          3.30488        1.00429       -0.00344
O          4.16709       -0.03759       -0.54235
C          3.28104       -1.10224       -0.09442
H          3.17411        1.85095       -0.67679
H          3.63655        1.31709        0.98923
H          3.60496       -1.50770        0.86683
H          3.12934       -1.88361       -0.83849