9

O          0.96911       -0.09000       -0.06162
C          2.18066       -0.03379       -0.04771
C          3.24182       -1.05583       -0.05653
C          4.22495       -0.12183       -0.04712
C          3.25992        1.05551       -0.00599
H          3.24816       -2.14179       -0.07169
H          5.31051       -0.17412       -0.05036
H          3.25813        1.71965       -0.87467
H          3.25277        1.64774        0.91344