9

O          1.12373        0.06932        0.04544
C          2.33606        0.05841        0.01383
C          3.45886        1.10102        0.02424
O          4.32108        0.05914       -0.51467
C          3.43502       -1.00551       -0.06674
H          3.32810        1.94768       -0.64911
H          3.79053        1.41382        1.01691
H          3.75894       -1.41097        0.89451
H          3.28332       -1.78688       -0.81081