8

O          1.11609       -0.03814        0.00526
C          2.31918       -0.01443       -0.12721
O          3.13906        1.06173       -0.17036
O          4.41836        0.65878       -0.80688
C          4.56712       -0.68342       -0.69821
O          5.53576       -1.35191       -0.98478
C          3.24461       -1.17295       -0.22719
O          2.98152       -2.31514        0.08025