9

O          1.15518        0.08752        0.06775
C          2.35234        0.05017       -0.02258
O          3.30926        1.00018       -0.17437
C          4.21551        0.03502       -0.78330
O          5.59783        0.16515       -0.42202
C          3.35868       -1.05509       -0.10431
O          3.35133       -2.17706        0.31467
H          4.09979        0.04836       -1.87208
H          5.65473        0.05010        0.54025