10

O          1.16863       -0.05490        0.03335
C          2.37086       -0.03174       -0.11495
O          3.19618        1.04068       -0.09436
O          4.40844        0.67191       -0.84724
C          4.61933       -0.72460       -0.65706
O          5.71544       -0.95175        0.19273
C          3.28203       -1.20871       -0.20707
O          2.97021       -2.33234        0.14494
H          4.83275       -1.16464       -1.63605
H          5.48448       -0.59175        1.06495