8

O          0.80833       -0.44133        0.02863
C          1.93116       -0.04653        0.02642
C          3.16853       -0.63674       -0.00308
C          4.33209       -0.17768        0.00635
C          3.26919        1.21272        0.07718
H          5.38768       -0.38877        0.05805
H          3.31123        1.86699       -0.79718
H          3.31199        1.78247        1.00916