8

O          0.95629       -0.43691        0.07729
C          2.07912       -0.04211        0.07508
C          3.31648       -0.63232        0.04557
C          4.48005       -0.17327        0.05500
C          3.41715        1.21714        0.12583
H          5.53564       -0.38436        0.10671
H          3.45918        1.87140       -0.74852
H          3.45995        1.78688        1.05781