11

O          1.07292       -0.08897        0.14130
C          2.27955       -0.04674       -0.02529
O          3.08114        1.04805        0.01119
O          4.31662        0.70652       -0.72903
C          4.45978       -0.70544       -0.63998
O          5.45279       -1.04296        0.30933
C          3.12824       -1.19875       -0.28140
O          2.63795       -2.40103       -0.75103
H          4.76317       -1.09564       -1.61451
H          5.23674       -0.56512        1.12593
H          1.67516       -2.47236       -0.59820