8

O          1.40232       -0.00483        0.36950
C          2.41261        0.11412       -0.27603
C          3.74173       -0.65344       -0.27603
O          4.14364       -1.58794        0.36951
C          3.66865        0.75457        0.09707
O          4.21104        1.69381       -0.86700
H          3.79994        0.98190        1.14922
H          4.05810        1.42905       -1.79173