8

O          1.17508        0.00962        0.03864
C          2.35099        0.06806        0.03956
C          3.64889        0.09637        0.04001
O          4.37933       -1.08402        0.02139
C          4.36061        1.38780        0.06038
O          3.79541        2.47375        0.07751
H          3.76555       -1.84326        0.00942
H          5.45951        1.30826        0.05913