9

O          1.11711       -0.07747       -0.01486
C          2.29136       -0.07362        0.05097
C          3.58312       -0.07063        0.10208
C          4.32370        0.00348        1.36883
O          5.54993        0.00419        1.38095
C          3.60059        0.08117        2.69662
O          2.38557        0.08634        2.78504
H          4.16412       -0.12390       -0.80829
H          4.26680        0.13231        3.57068