9

O          1.07013       -0.01718        0.06368
C          2.24514        0.02667        0.04368
C          3.54509        0.08287        0.01804
C          4.25211        1.22598       -0.50347
O          5.63391        1.23172       -0.50609
C          3.66311        2.28283       -0.98562
O          3.09379        3.21987       -1.41312
H          4.09271       -0.76588        0.40525
H          5.99801        0.41290       -0.13253