9

O          1.18755       -0.07095        0.04268
C          2.36300       -0.08033        0.04322
C          3.56519       -0.10684        0.04475
C          4.86421       -0.06087        0.04210
O          5.60360       -1.22682        0.10924
C          5.58774        1.23406       -0.03245
O          5.02645        2.32080       -0.09502
H          5.01704       -2.00273        0.15391
H          6.68717        1.14645       -0.02741