9

O          1.17763       -0.01444        0.00717
C          2.35189        0.03423        0.05166
C          3.64364        0.07202        0.08620
C          4.38422        1.00861        0.94233
O          5.61045        1.01757        0.95052
C          3.66112        1.99033        1.83971
O          2.44609        2.05570        1.89946
H          4.22465       -0.60108       -0.52907
H          4.32733        2.63658        2.43044