9

O          1.09055       -0.00510        0.04105
C          2.26990        0.00743        0.04601
C          3.56970        0.02061        0.04471
O          4.26728       -0.00375       -1.14759
C          4.35956       -0.15691        1.21998
H          4.04179       -0.71059        2.08850
O          5.69281        0.13265        1.15032
H          3.64409       -0.01886       -1.89254
H          6.15745        0.00223        1.99369