7

O          1.25684        0.13575       -0.21057
C          2.42807        0.04130       -0.08387
C          3.64722       -0.10788        0.28898
C          4.84492       -0.73535       -0.14979
O          4.66550        0.70704       -0.10836
H          5.30878       -1.26302        0.67596
H          5.06680       -1.13823       -1.12857