11

O          1.09612       -0.32674        0.45753
C          2.26248       -0.13120        0.13923
C          2.70609        0.82772       -0.89986
H          3.68344        0.62775       -1.32543
C          1.87309        1.81760       -1.54561
C          0.53683        1.82052       -1.47773
O         -0.30252        2.67503       -2.13357
H          3.07812       -0.68587        0.62586
H          2.39586        2.55206       -2.15514
H         -0.04638        1.11392       -0.89954
H          0.21519        3.27135       -2.69645