9

O          1.05169        0.29937       -0.19629
C          2.23778        0.16290        0.07843
C          2.77592       -0.88810        0.96888
O          4.03821       -0.73871        1.53108
C          1.99239       -2.07906        1.35755
O          0.78077       -2.18565        1.20839
H          2.99025        0.84980       -0.33715
H          4.43634        0.13160        1.35187
H          2.58091       -2.88945        1.81438