11

O          1.24776       -0.76360       -0.16667
C          2.36361       -0.27656       -0.02381
C          2.48388        1.10538        0.38154
C          2.08313        2.29709        0.73109
C          0.61242        2.53207        0.80002
O          0.10480        3.59875        1.11290
O          0.00417        1.36526        0.45777
O         -1.43102        1.47053        0.48864
H          3.27124       -0.86310       -0.19586
H          2.74097        3.12285        0.97330
H         -1.57442        0.54184        0.21624