11

O          1.00923        0.05517        0.14322
C          2.23123        0.04163        0.02521
C          2.90194        1.07369       -0.79592
H          3.79283        0.88023       -1.36866
O          2.20497        2.19660       -1.17850
C          3.04184       -1.06461        0.71312
O          2.48631       -1.99103        1.28941
O          4.38209       -0.86773        0.60750
O          5.03171       -1.99197        1.30163
H          2.69585        2.80157       -1.75961
H          5.95301       -1.72273        1.15005