11

O          1.12320       -0.10078       -0.13101
C          2.36376       -0.07716       -0.10497
O          2.98329        0.73773        0.79297
O          4.42591        0.66821        0.71636
C          3.03320       -0.96272       -1.08080
O          2.21841       -1.72205       -1.91753
C          4.27881       -1.22072       -1.36510
O          5.33746       -1.75896       -1.95820
H          4.58575        1.31676        1.43101
H          1.29901       -1.50296       -1.67611
H          6.19288       -1.45327       -1.62135