11

O          1.08728        0.54150       -0.09595
C          2.25364        0.19907        0.05334
C          2.69725       -1.18180        0.35737
H          3.67460       -1.26113        0.82085
C          1.86425       -2.36313        0.32103
C          0.52799       -2.32671        0.26368
O         -0.31136       -3.40276        0.31303
H          3.06928        0.93238       -0.02867
H          2.38702       -3.31422        0.40104
H         -0.05522       -1.41640        0.19345
H          0.20635       -4.21384        0.43377