8

O          1.04732        0.02635       -0.02447
C          2.26136        0.00804        0.08233
C          2.95577       -0.21705        1.39526
O          4.18401       -0.21705        1.39526
C          2.26136       -0.44214        2.70819
O          1.04732       -0.46045        2.81498
H          2.94468        0.15383       -0.76807
H          2.94468       -0.58793        3.55858