14

O          1.02454        0.05921        0.16661
C          2.25035        0.01900        0.12360
C          3.02261       -0.82720       -0.86363
O          3.88735       -0.05765       -1.68775
C          3.25996        0.89412       -2.44947
H          2.36664        1.35036       -2.04775
C          4.02814        1.62683       -3.47046
O          5.23598        1.49506       -3.62471
C          3.29288        2.61050       -4.34360
O          2.07556        2.74025       -4.29027
H          2.86661        0.64142        0.79349
H          3.65107       -1.50955       -0.27999
H          2.34143       -1.43950       -1.46602
H          3.94348        3.18450       -5.01870