10

O          1.00111       -0.12326        0.04607
C          2.21557       -0.06617       -0.03454
C          2.92673        0.70147       -1.11851
O          4.15377        0.68341       -1.09300
C          2.16903        1.46485       -2.19645
O          0.95143        1.49748       -2.24253
O          3.03921        2.06816       -3.04837
O          2.23216        2.77674       -4.04895
H          2.88532       -0.57106        0.67840
H          2.97258        3.14098       -4.56328