11

O          1.12391       -0.07551       -0.04788
C          2.34420       -0.06826       -0.05762
C          3.14508       -1.16079        0.60900
O          4.36595       -1.07983        0.53877
C          2.24430       -2.22173        1.26514
O          2.46577       -3.59220        0.87841
O          2.69380       -3.95751        2.29184
C          2.78608       -2.64697        2.61662
O          3.12430       -2.14244        3.66660
H          2.94673        0.71451       -0.54412
H          1.17697       -2.00002        1.29215