9

O          1.04186       -0.08030        0.06833
C          2.26887       -0.05402        0.05022
C          3.05120        0.97212       -0.70504
C          3.94281        1.75693        0.20300
O          5.16229        1.79982        0.07042
H          2.85928       -0.81723        0.58592
H          3.65278        0.46261       -1.46311
H          2.36701        1.66405       -1.20432
H          3.44021        2.32622        1.00384