10

O          1.06525        0.05842        0.02217
C          2.28640        0.04025       -0.10895
C          3.00726       -1.09781       -0.67099
C          2.78557       -2.34430       -0.47303
C          3.57537       -3.25055       -1.23965
O          4.17567       -2.35753       -2.19932
O          3.99291       -0.96543       -1.63280
H          2.91602        0.88847        0.20170
H          2.99401       -4.01943       -1.75349
H          4.38206       -3.71271       -0.66437