11

O          1.02090        0.01652        0.09534
C          2.24102       -0.00128        0.08604
C          3.04945        1.00285        0.87082
O          4.27008        0.91363        0.80296
C          2.16050        1.98312        1.65519
O          2.58221        2.31370        2.99354
O          2.62383        3.74566        2.63118
C          2.51731        3.41937        1.32271
O          2.63862        4.12756        0.34554
H          2.83849       -0.73829       -0.47299
H          1.08832        1.78661        1.63918