9

O          1.15340       -0.17989       -0.09496
C          0.54147       -0.53964        1.07447
H          1.13877       -0.38574        1.95969
C         -0.93297       -0.70344        1.08185
O         -1.54071        0.57240        1.20522
H          2.10154        0.01933        0.01677
H         -1.28779       -1.17905        0.16303
H         -1.24617       -1.31738        1.93119
H         -1.06443        1.05132        1.90252