9

O          1.02149       -0.18473       -0.19739
C          0.43511        0.49492       -1.10894
C         -0.39352        0.24053       -2.14164
O         -0.44704        1.44265       -2.59824
C          0.34820        1.94842       -1.50068
H          1.91461        0.17059       -0.05486
H         -0.80481       -0.70934       -2.49176
H          1.26028        2.44688       -1.84173
H         -0.23574        2.61903       -0.86004