11

O          1.19494        0.03056       -0.01492
C          0.55395        0.90013       -0.91878
C          0.36472        2.24827       -0.32269
C          0.82134        3.16497       -1.17418
C          1.32475        2.46765       -2.30518
H          1.43475        2.79966       -3.32157
O          1.33255        1.10121       -2.11568
H          2.12753        0.29599       -0.03760
H         -0.40454        0.46460       -1.21604
H         -0.12736        2.43942        0.61754
H          0.77917        4.23779       -1.06567