11

O          0.92034       -0.09153        0.23422
O          0.49818        1.13806       -0.42701
C         -0.93218        1.14142       -0.41626
C         -1.50779        0.21810       -1.44790
O         -2.79897       -0.23572       -1.33093
O         -0.86012        0.06719       -2.64264
H          1.86209       -0.01280       -0.00535
H         -1.29346        0.90526        0.59091
H         -1.25281        2.16023       -0.65357
H         -3.17774       -0.06559       -0.45287
H         -1.38593       -0.50804       -3.22599