10

C          1.19657        0.00644        0.13950
H          0.66514       -0.81929        0.60167
H          0.70344        0.97034        0.07578
C          2.62384       -0.06173       -0.01510
C          3.27487       -1.20921       -0.24321
C          4.75006       -1.23189       -0.27844
O          5.36768       -2.27551       -0.46819
H          3.15349        0.88174        0.09268
H          2.77921       -2.16184       -0.38823
H          5.26288       -0.27311       -0.10148