10

C          1.10182        0.21761       -0.04398
H          0.65616        0.41341        0.91597
H          0.72039        0.57214       -0.98708
O          2.43598       -0.05756       -0.08043
C          3.07132       -0.62190        1.00381
C          2.44797       -1.29873        1.91660
C          1.81308       -1.95504        2.84201
H          4.14575       -0.62116        0.87858
H          0.75783       -1.77718        3.01169
H          2.32640       -2.67773        3.46462