11

C          1.09798       -0.20383        0.10073
H          0.57388       -1.08399       -0.25446
H          0.59916        0.40921        0.84387
C          2.57903       -0.11026       -0.02067
C          3.07348       -0.61306       -1.34251
C          3.84206        0.10874       -2.17198
H          2.88390        0.93073        0.13699
H          3.02830       -0.70800        0.77860
H          2.81304       -1.63167       -1.62123
H          4.19636       -0.30585       -3.10992
H          4.13810        1.12388       -1.92807