10

C          0.92157        0.00020        0.06204
H          0.41800        0.70105        0.71650
H          0.41941       -0.41007       -0.80566
C          2.44157        0.00020        0.06204
C          3.74543        0.00020        0.06204
C          5.26543        0.00020        0.06204
O          5.76117       -1.17067       -0.59152
O          5.54616       -2.24302        0.29022
H          5.62399        0.87043       -0.49630
H          5.65653        0.06338        1.08353