8

C          1.08502        0.03602        0.26351
H          0.59729       -0.92093        0.15629
H          0.57206        0.89231        0.67918
C          2.54079        0.08672        0.10470
O          3.15571       -0.70383       -0.59826
C          3.29288        1.12770        0.89906
O          2.70636        1.94419        1.59543
H          4.38742        1.05521        0.82203