7

C          1.23627        0.21075       -0.12741
H          0.22257        0.42509       -0.37957
C          2.52199        0.08416        0.02152
C          3.16555       -0.77216        1.02894
O          4.39358       -0.83197        1.09930
H          3.19238        0.63293       -0.62408
H          2.51424       -1.34658        1.70471