14

C          1.06093       -0.00914       -0.30709
H          0.58438        0.96063       -0.31755
H          0.53439       -0.89862       -0.61746
C          2.52080       -0.04535       -0.12428
O          3.07837        0.87684        0.46604
C          3.26371       -1.15633       -0.80580
C          2.92398       -2.51608       -0.25842
C          2.28964       -3.51842       -1.18699
O          3.12000       -2.80230        0.92267
H          3.03155       -1.09661       -1.87500
H          4.34221       -0.99725       -0.70820
H          2.92125       -4.40835       -1.23934
H          1.30004       -3.78119       -0.80321
H          2.17208       -3.11195       -2.19426