13

C          1.11917        0.19254       -0.04480
H          0.60856        0.99983        0.46388
H          0.61892       -0.27469       -0.88556
C          2.59816        0.03124        0.07511
C          3.11487        0.30904        1.46630
C          3.92473       -0.48498        2.18951
O          3.00056       -1.25082       -0.44066
O          2.34120       -2.29445        0.35128
H          3.04971        0.77460       -0.59228
H          2.81445        1.25831        1.90334
H          4.24717       -0.20928        3.18580
H          4.27092       -1.43527        1.80044
H          2.99304       -2.99221        0.16207