10

C          1.05189       -0.28910        0.03790
H          0.52663       -0.38744       -0.90415
H          0.55137       -0.56137        0.96055
C          2.47325       -0.11807        0.06173
C          3.17048        0.53778       -0.87892
C          4.60014        0.65025       -0.78877
H          5.06737        1.58277       -1.08404
H          5.14456       -0.00500       -0.11626
H          2.98539       -0.55010        0.91676
H          2.68020        1.03059       -1.71453