10

C          1.03093       -0.17158        0.18509
H          0.52071       -1.07002       -0.12469
H          0.56398        0.57506        0.80925
C          2.48810       -0.13341       -0.03904
O          2.94690       -0.76159       -0.98086
C          3.30844        0.65899        0.96426
O          2.68648        1.29322        1.82519
C          4.82968        0.70006        1.03761
O          5.46012        0.05095        0.14621
O          5.35707        1.36955        1.98415