13

C          0.99986        0.22308        0.14428
H          0.45468       -0.43143        0.81395
H          0.50018        1.11113       -0.22814
C          2.47829        0.08808       -0.01067
C          2.96016       -1.36311        0.02964
C          2.47732       -2.18497       -1.15760
H          2.78544        0.55467       -0.95308
H          2.95989        0.64754        0.79916
H          4.05696       -1.36950        0.03652
H          2.63468       -1.84311        0.96007
H          2.82682       -1.75199       -2.10013
H          2.86452       -3.20673       -1.09034
H          1.38495       -2.24301       -1.18910