9

C          0.99481        0.04835        0.08047
H          0.57525        0.83146        0.69701
H          0.46245       -0.16167       -0.84660
C          2.43257       -0.01488       -0.03352
O          3.13251        0.00488        1.15563
C          3.06769       -0.07128       -1.21620
O          2.66012       -0.08545       -2.41373
H          2.47753       -0.04395        1.86543
H          4.15173       -0.09595       -1.09205