10

C         -0.31013       -1.06906       -0.11567
H         -0.72404       -2.01982       -0.39460
C          1.04242       -0.64548       -0.11005
C          1.04357        0.67978       -0.01623
C         -0.35747        1.15548        0.14212
O         -1.18894       -0.01135       -0.05596
H          1.89718       -1.29457       -0.21398
H          1.91359        1.31702       -0.04460
H         -0.62414        1.91580       -0.59743
H         -0.53386        1.54273        1.15111