9

C          1.03392       -0.05506       -0.04637
H          0.56236        0.48804       -0.85209
H          0.49840       -0.87379        0.41363
C          2.48622       -0.08291        0.07505
O          2.99736        1.09893       -0.10247
O          2.81594       -0.47451        1.36726
O          3.02280       -0.94905       -0.86522
H          2.83645        0.39943        1.78736
H          3.90489       -0.56058       -0.94291