11

C          0.99643       -0.16035        0.07159
H          0.47500       -0.78922       -0.64123
H          0.50205        0.10232        1.00025
C          2.42083       -0.02412       -0.00733
C          3.10858       -0.05613       -1.15906
C          4.60189       -0.02732       -1.20365
H          2.94321        0.07861        0.93981
H          2.59168       -0.12477       -2.11316
H          4.97050       -0.93194       -1.69781
H          4.95589        0.84342       -1.76235
H          5.03917        0.00697       -0.20029