7

C          1.05842        0.07613       -0.02812
H          0.57166        0.58852        0.79403
H          0.57424        0.04727       -0.99801
C          2.57842        0.07613       -0.02812
C          3.88228        0.07613       -0.02812
O          5.20879        0.07599       -0.03441
H          5.54999        0.45861        0.79398