10

C          1.14382       -0.17390        0.02521
H          0.72372       -1.01832       -0.51155
H          0.53112        0.22499        0.82525
C          2.57315       -0.07116        0.10617
O          3.26046       -0.28960       -1.06676
C          3.25496        0.18898        1.23091
O          2.73571        0.41198        2.47725
H          2.62823       -0.37045       -1.80074
H          4.33617        0.22591        1.25638
H          1.76679        0.38636        2.42945