11

C          1.00009        0.17418       -0.09082
H          0.47669        0.76842        0.65034
H          0.45618       -0.15701       -0.96853
C          2.43539       -0.01945        0.02149
C          3.16838       -0.79118       -1.04337
C          3.30397        0.70448       -0.97236
H          2.80851       -0.11016        1.03675
H          4.02725       -1.38348       -0.74898
H          2.60111       -1.22064       -1.86025
H          2.82740        1.29468       -1.74638
H          4.23742        1.11914       -0.61233