9

C          1.17495        0.00348       -0.15888
H          0.67743        0.85572       -0.59614
H          0.67512       -0.95200       -0.06900
C          2.63213        0.01832        0.01754
C          3.32074        1.33087        0.26166
O          3.24770       -1.04592       -0.04777
H          3.93831        1.24721        1.16136
H          3.94981        1.57304       -0.59829
H          2.60190        2.14025        0.41720