8

C          1.15815       -0.08240        0.19182
H          0.62561       -1.01205        0.34827
H          0.63972        0.84515        0.40435
C          2.62829       -0.06221        0.02633
O          3.01990       -1.18439       -0.73887
H          2.94555        0.84231       -0.50011
H          3.12391       -0.09734        1.00006
H          2.72867       -1.97970       -0.26062