11

O          1.06019        0.07217       -0.18473
C          2.31548       -0.02747       -0.08882
O          3.01328       -0.97946        0.35404
C          3.08768        1.19280       -0.52422
C          2.71200        1.53711       -1.92499
O          2.32247        2.64697       -2.28986
C          2.99130        0.52654       -3.01784
O          3.62004       -0.50656       -2.84746
H          2.83092        2.03194        0.13159
H          4.17028        1.04241       -0.47297
H          2.66597        0.86000       -4.01419