11

O          1.06545        0.09008        0.06177
C          2.30526        0.00548       -0.13483
C          3.00058       -0.40129       -1.21079
C          2.40151       -0.91186       -2.45734
C          3.42971       -1.94177       -2.72628
O          3.27038       -2.95942       -3.39626
O          4.64245       -1.53818       -2.24118
O          4.36861       -0.51671       -1.22156
H          2.94203        0.28706        0.70651
H          1.41205       -1.35453       -2.33836
H          2.42021       -0.16070       -3.25173