13

O          1.02395        0.06245       -0.09062
O          2.42984       -0.02023       -0.01887
C          2.86013        0.75038        1.11709
O          2.40372        2.10071        1.12336
C          2.41366        0.10325        2.39969
C          3.26050       -0.38250        3.31842
C          2.77793       -1.03478        4.55060
O          3.57213       -1.47997        5.37180
H          3.95436        0.78312        1.07462
H          2.70743        2.48533        0.28465
H          1.33567        0.04035        2.53844
H          4.33742       -0.33189        3.20897
H          1.68644       -1.10598        4.68339