11

O          1.03627       -0.04135        0.05817
O          2.44371       -0.09745        0.03488
C          2.92575        1.07782        0.52278
O          2.29783        2.05426        0.92814
C          4.42624        1.04508        0.50919
O          5.16540       -0.04363        0.05722
C          5.08766        2.12331        0.95680
O          4.54766        3.28797        1.44030
H          4.59671       -0.77038       -0.24448
H          6.17001        2.17902        0.97993
H          3.56555        3.23369        1.41776