13

O          1.01078        0.02305        0.20087
C          2.31994        0.00525        0.07912
O          2.80519        0.67473        1.24293
C          2.84826       -1.46804        0.07949
C          2.34159       -2.20903       -1.14714
C          1.90697       -2.84466       -2.19934
C          1.40328       -3.54089       -3.35399
O          0.23017       -3.88312       -3.45556
H          2.79888        0.50427       -0.77583
H          3.76684        0.66181        1.18824
H          3.94489       -1.46803        0.08753
H          2.53168       -1.99818        0.98782
H          2.14892       -3.76344       -4.13077