10

O          1.31996       -0.15905        0.27449
O          2.68463        0.00329        0.11576
C          2.95450        0.96375       -0.82335
C          2.24349        1.78308       -1.62447
O          2.93012        2.65737       -2.47934
C          0.75202        1.91590       -1.75434
O         -0.11854        1.30514       -1.15715
H          4.03890        0.98983       -0.84885
H          3.89100        2.55324       -2.37752
H          0.45686        2.67573       -2.49729