15

O          1.19232        0.19283       -0.03600
C          2.50766        0.12215        0.03495
C          3.02359        0.08520       -1.41699
O          3.77546        0.91805       -1.92976
C          3.01075        1.38135        0.70036
C          3.82711        1.41383        1.70880
O          4.52785        1.33041        2.65599
C          2.93308       -1.17528        0.75728
C          2.40415       -1.25619        2.18389
O          1.80796       -2.22354        2.65561
H          2.69475       -0.78419       -2.01791
H          2.72181        2.32750        0.25725
H          2.61009       -2.07919        0.22478
H          4.03161       -1.22515        0.79853
H          2.65373       -0.41290        2.84663