14

O          1.11473        0.08291        0.05437
C          2.43501        0.01402        0.12510
C          2.95942        0.42412       -1.24829
O          3.71357        1.37681       -1.45877
C          2.95518        0.98191        1.17837
O          3.73393        0.68144        2.08676
C          2.88387       -1.42824        0.41893
C          2.38291       -1.94917        1.75341
O          1.81768       -3.03624        1.90303
H          2.63728       -0.20830       -2.09591
H          2.62561        2.02991        1.06734
H          2.56410       -2.13028       -0.36367
H          3.98134       -1.47884        0.44980
H          2.63870       -1.34570        2.63832