14

O          1.05241        0.11205        0.14049
C          2.38217        0.11139        0.05896
C          2.88816        0.50002       -1.37614
C          2.19182       -0.17600       -2.51198
C          1.85195        0.71675       -3.43475
C          2.35759        2.04941       -3.02986
O          2.78609        1.91899       -1.66575
H          2.92688        0.78271        0.74056
H          2.88328       -0.85292        0.25235
H          3.96169        0.26994       -1.42301
H          1.92257       -1.21994       -2.48331
H          1.25305        0.51266       -4.30668
H          1.59534        2.82970       -3.09751
H          3.21932        2.33522       -3.64280