9

O          1.02172       -0.24052        0.26146
C          2.24614       -0.01096        0.02285
C          2.93606        0.80565       -0.82596
O          4.18569        0.96098       -0.98741
C          2.21297        1.68967       -1.74484
C          0.91790        1.77897       -1.83765
O         -0.24552        1.93608       -2.00096
H          2.93099       -0.59905        0.63413
H          2.79827        2.32241       -2.40252