17

O          1.25108        0.46920        0.02415
O          2.57065        0.02537        0.22454
C          2.90262       -0.78799       -0.89919
C          2.35345       -2.20818       -0.73901
C          0.83049       -2.32049       -0.89967
C          0.29267       -1.74431       -2.21054
O          0.67768       -2.55205       -3.32687
O          2.04153       -2.17726       -3.67386
H          2.59718       -0.30281       -1.83246
H          3.99590       -0.83941       -0.93499
H          2.84212       -2.87219       -1.46048
H          2.62208       -2.58584        0.25518
H          0.55806       -3.38118       -0.83713
H          0.33704       -1.82816       -0.05435
H         -0.80205       -1.75662       -2.17861
H          0.57842       -0.70123       -2.37768
H          2.29378       -3.04917       -4.03902