13

O          0.94251        0.08882        0.01189
O          2.34624        0.03702       -0.02434
C          2.72547        0.47894       -1.31119
C          2.21016       -0.44371       -2.39320
O          1.52098       -0.02229       -3.32774
C          2.62364       -1.90153       -2.30231
O          4.04114       -2.03694       -2.29121
O          4.50299       -1.50362       -3.56660
H          2.36862        1.49960       -1.48649
H          3.81902        0.49984       -1.35634
H          2.22820       -2.33059       -1.37665
H          2.19993       -2.46375       -3.14110
H          5.44134       -1.74741       -3.46367