11

O          0.96963       -0.07997        0.04959
O          2.36217        0.08198       -0.05949
C          2.73823       -0.17887       -1.42405
O          2.35141       -1.45893       -1.92986
C          2.23333        0.90066       -2.34660
O          3.11982        1.74565       -3.01170
C          0.96926        1.13034       -2.55061
O         -0.18081        1.32990       -2.71148
H          3.83347       -0.17678       -1.43036
H          2.61148       -2.11374       -1.26129
H          4.04343        1.49207       -2.84778