16

O          0.99846        0.02204        0.00944
C          2.25011       -0.09788       -0.07814
C          2.99450       -0.91903       -0.83738
C          4.43695       -0.92769       -0.80690
C          5.20485       -1.69464       -1.59481
O          6.57539       -1.72286       -1.68209
C          7.28546       -0.83286       -0.82933
C          7.03576        0.63260       -1.13723
O          6.74037        1.46905       -0.28541
H          2.82963        0.57470        0.56116
H          2.48697       -1.60268       -1.51125
H          4.86163       -0.23425       -0.08967
H          4.78265       -2.39967       -2.30357
H          7.07820       -1.05479        0.22379
H          8.35494       -1.00673       -0.99173
H          7.18743        0.92798       -2.18739