12

O          0.99326        0.08963       -0.00430
O          2.40023        0.09383       -0.05036
C          2.82164        0.66544        1.17515
C          4.29535        0.55180        1.34140
C          4.76169        1.73585        1.71800
O          3.82922        2.74840        1.82034
C          2.67024        2.18503        1.16061
H          2.31635        0.19676        2.02901
H          4.87322       -0.35301        1.23369
H          5.76769        2.01113        1.99281
H          1.76466        2.50891        1.68451
H          2.62942        2.58929        0.14065