12

O          1.05387       -0.00114        0.11491
C          2.37946        0.02793        0.06083
C          2.89391       -1.25392       -0.66212
C          2.47705       -1.35656       -2.08199
C          2.07824       -1.43544       -3.21607
C          1.56216       -1.49761       -4.56016
O          1.22359       -2.55770       -5.07511
H          2.86619        0.87099       -0.45501
H          2.91446        0.03597        1.02576
H          3.99276       -1.24521       -0.62457
H          2.58572       -2.15266       -0.11054
H          1.51392       -0.54051       -5.10398