15

O          0.97302        0.08410        0.02678
C          2.29478        0.07500        0.07763
C          2.88170        0.80354       -1.15156
C          2.48473        2.24744       -1.28873
O          3.28875        3.17600       -1.19345
C          2.79820        0.71518        1.39202
O          3.59761        0.11408        2.12554
C          2.40326        2.07586        1.83839
C          1.56431        2.85873        1.24414
O          0.86438        3.64369        0.70368
H          2.80045       -0.90712        0.05398
H          3.97791        0.77784       -1.11467
H          2.56746        0.32168       -2.08539
H          1.40428        2.43012       -1.43496
H          2.92952        2.45067        2.70147