14

O          1.22881       -0.01930        0.06015
C          2.49002        0.05657       -0.03018
C          3.19498       -0.30864        1.28155
C          4.04543       -1.56151        1.12889
O          5.20093       -1.69196        1.53583
C          3.20920        0.42260       -1.11658
O          2.50456        0.72798       -2.28218
C          4.69464        0.52672       -1.20104
O          5.48598        0.49273       -0.26360
H          3.81282        0.52812        1.62664
H          2.48887       -0.52724        2.09479
H          3.52240       -2.43383        0.70508
H          1.57921        0.62439       -1.95290
H          5.06771        0.66584       -2.22363