15

O          1.07444        0.15138       -0.03246
C          2.39365        0.19012        0.04830
C          2.91486       -0.47815       -1.24523
C          4.39343       -0.43377       -1.44338
O          5.18375        0.42741       -1.07422
O          4.76254       -1.47828       -2.24286
O          3.74630       -2.52622       -2.09484
C          2.67276       -1.96722       -1.33913
C          2.58048       -2.66420        0.01127
O          1.66384       -3.40902        0.35725
H          2.88143        1.17322        0.11057
H          2.88509       -0.31373        0.89567
H          2.49888        0.02055       -2.13494
H          1.75001       -2.18256       -1.88632
H          3.44254       -2.50834        0.68342