9

O          1.11121       -0.07182       -0.41111
C          2.32206       -0.03816       -0.07029
C          2.95934        0.07875        1.11357
O          4.35409        0.08450        1.17180
C          2.26047        0.20976        2.44025
O          1.05846        0.23388        2.68450
H          2.99890       -0.12203       -0.91951
H          4.65141       -0.00643        0.25104
H          2.96842        0.29261        3.27919