14

O          1.03455        0.08909       -0.00682
O          2.43792        0.02679        0.03721
C          2.83275       -0.93139       -0.94752
C          2.39273       -2.33220       -0.58712
O          1.64936       -3.00148       -1.55002
C          2.69656       -2.92847        0.58528
O          3.48356       -2.34461        1.56751
C          2.19076       -4.30235        0.91645
O          1.48852       -5.01178        0.20433
H          2.46652       -0.61517       -1.93046
H          3.92749       -0.91153       -0.99689
H          1.35806       -2.41160       -2.26424
H          3.73431       -1.44184        1.32195
H          2.50873       -4.65690        1.90928