10

O          1.04334        0.09591       -0.18538
O          2.44264       -0.00062       -0.04904
C          2.78049        0.46420        1.26272
O          2.49810        1.85590        1.49320
C          2.11080       -0.35704        2.28274
O          1.49803       -0.98556        3.07196
C          4.29333        0.33795        1.32206
O          5.00754        0.00692        0.37470
H          2.70943        2.31324        0.66242
H          4.76783        0.65080        2.26849