9

O          0.97243       -0.05302       -0.06685
C          2.29268        0.04792       -0.09642
C          2.82594       -0.12904        1.32116
O          3.60839       -1.01997        1.66502
C          2.48895        0.90843        2.38965
O          1.93154        1.98220        2.21358
H          2.84664       -0.70317       -0.68336
H          2.77268        0.97726       -0.44264
H          2.88309        0.62886        3.37834