15

O          1.02023        0.08755        0.46770
C          2.34923       -0.08182        0.16201
C          2.59364       -0.09036       -1.35358
C          1.97341       -1.28222       -2.04692
O          1.24363       -1.21303       -3.03550
O          3.19791        0.88164        0.85557
C          4.17143       -0.10892        1.25404
O          4.67107        0.01877        2.59851
C          3.10065       -1.18185        0.97334
O          2.99098       -2.37282        1.21397
H          2.21750        0.82335       -1.83165
H          3.66995       -0.12798       -1.57850
H          2.30509       -2.26758       -1.67712
H          5.00112       -0.12441        0.54252
H          3.86843       -0.04340        3.14241