12

O          1.20405       -0.15231        0.38437
O          2.56455        0.08617        0.16554
C          2.76202        0.39985       -1.20984
O          2.30530       -0.55701       -2.16386
C          2.22815        1.79523       -1.57010
O          3.00174        2.73532       -1.78496
C          0.77699        2.05619       -1.70145
C         -0.13422        1.15306       -1.54284
O         -0.98111        0.34859       -1.38410
H          3.85205        0.44808       -1.32009
H          2.67413       -1.41597       -1.90162
H          0.48524        3.07309       -1.92266