14

O          0.99837       -0.08502       -0.11114
O          2.40020       -0.05866       -0.07424
C          2.79245       -1.11160        0.77941
C          2.30219       -0.91463        2.19480
O          1.66248       -1.80394        2.77112
C          2.67188        0.34797        2.93384
O          3.49135        1.32704        2.39062
C          2.21586        0.52002        4.18297
O          1.42314       -0.34195        4.89702
H          2.43126       -2.07012        0.38965
H          3.88659       -1.15690        0.79875
H          3.70972        1.14766        1.46558
H          2.44568        1.39741        4.77545
H          1.23029       -1.12624        4.33405