10

O          0.95618       -0.01320       -0.17655
O          2.35622        0.00655       -0.02373
C          2.69311       -1.15135        0.74053
C          2.23134       -0.99733        2.18615
O          0.81266       -1.01982        2.30457
H          2.27072       -2.04501        0.26706
H          3.78420       -1.23564        0.71877
H          2.61929       -1.82208        2.79199
H          2.58505       -0.05258        2.60918
H          0.45972       -0.45996        1.57384