13

O          1.01321       -0.07371        0.13068
O          2.39484        0.04243       -0.08991
C          2.89432       -1.20776       -0.54049
C          3.07141       -2.22976        0.52994
C          2.71483       -3.40449        0.02644
O          2.26446       -3.39718       -1.28349
C          2.01276       -1.98875       -1.53532
O          2.29374       -1.67819       -2.89863
H          3.87427       -0.99724       -0.98574
H          3.46495       -2.05441        1.51993
H          2.76095       -4.38009        0.48817
H          0.93916       -1.83003       -1.39206
H          3.24408       -1.80817       -3.03683