11

O          1.14824        0.06646        0.10596
C          2.45445       -0.01507       -0.02310
O          3.04690        0.98770        0.84628
O          4.41031        0.52402        1.13051
C          4.26422       -0.85886        1.44651
O          4.21421       -1.07040        2.84045
C          3.04423       -1.24220        0.63895
O          2.66690       -2.41203        0.52863
H          2.95800        0.08263       -0.99415
H          5.13438       -1.37654        1.03404
H          3.33915       -0.71902        3.08556