12

O          1.17424       -0.02004        0.09096
C          2.42173       -0.12580       -0.01309
C          3.15376       -1.00997       -0.71052
C          4.65432       -1.05081       -0.77311
C          5.17941       -2.35806       -0.19199
O          6.03091       -3.08754       -0.70053
O          5.15079       -0.78588       -2.07728
O          4.70473       -1.80491       -2.94811
H          2.99942        0.62022        0.53531
H          2.62836       -1.76301       -1.29639
H          5.06769       -0.26672       -0.12456
H          4.82549       -2.58500        0.82835