15

O          1.12784        0.00762       -0.00853
C          2.45597       -0.01121       -0.01074
C          3.43188        0.93319        0.02374
O          3.38225        2.21777        0.05594
C          4.59991        2.91608        0.05977
C          5.46072        2.70816        1.28820
O          6.65540        2.41818        1.25501
O          4.41473        0.09143        0.00049
C          3.52633       -1.05013        0.11607
O          3.64818       -1.99752       -0.95813
H          5.17997        2.74727       -0.85415
H          4.34326        3.98551        0.06721
H          4.96401        2.92899        2.24839
H          3.60899       -1.54989        1.08863
H          3.36144       -1.46624       -1.71768