15

O          0.88784       -0.03682        0.40624
C          2.25611       -0.00559        0.13736
C          2.55578        0.01055       -1.36549
C          1.96943       -1.18687       -2.07948
O          1.22798       -1.12679       -3.05824
C          3.09425        1.02428        0.99640
O          3.13740        2.21015        1.25620
O          3.96116        0.05970        1.42961
C          3.08146       -1.01255        0.99592
O          2.44097       -1.65435        2.11571
H          2.18812        0.92423       -1.84946
H          3.64105       -0.01512       -1.55235
H          2.31303       -2.16662       -1.70520
H          3.63361       -1.75872        0.41353
H          1.78343       -0.97594        2.36985