9

O          1.17317       -0.00907       -0.02976
C          2.43130       -0.09084       -0.03812
O          3.16557       -1.09248       -0.26968
C          3.17792        1.18702        0.26878
C          2.80188        2.21155       -0.74926
O          2.45666        3.36211       -0.46964
H          2.92764        1.54287        1.27130
H          4.26038        1.03184        0.20748
H          2.97167        1.92890       -1.80229