14

C          0.98927        0.06035        0.07424
C          0.85630       -1.12639        0.59352
O          1.22592       -2.28979        1.10064
C          0.25800       -3.18512        1.57391
C         -0.57773       -2.76247        2.77482
C         -2.06437       -2.97852        2.68880
O         -0.07308       -2.28729        3.79399
H          0.20809        0.74366       -0.22973
H          2.02019        0.37258       -0.05284
H         -0.36459       -3.57206        0.76007
H          0.83713       -4.04710        1.93089
H         -2.38350       -3.63432        3.50315
H         -2.56486       -2.01039        2.75953
H         -2.33946       -3.44717        1.74090