10

C          0.93992       -0.08737        0.16153
C          0.75678        0.20945       -1.09435
C          1.19373        0.51986       -2.40780
C          2.53729        0.54792       -2.52652
O          0.26529        0.75615       -3.40760
O          0.96903        1.03795       -4.59998
H          0.16933       -0.26039        0.89363
H          1.97887       -0.16012        0.46936
H          3.04669        0.76635       -3.45075
H          3.15730        0.34254       -1.65753