7

C          0.98744        0.01612        0.00643
C          0.77095        0.82301       -0.98555
C          1.16070        1.74253       -2.11600
O          2.42256        1.84014       -2.23599
O          0.25794        2.29408       -2.79406
H          0.23799       -0.47299        0.60773
H          2.04195       -0.14188        0.20067