11

C          0.90205        0.01703        0.10246
C          0.17727        0.67894        1.00623
O          0.74167        1.52072        1.93707
O         -0.33132        1.84668        2.91800
C         -1.52794        1.41004        2.42309
O         -2.62633        1.59056        2.91848
C         -1.21549        0.64095        1.22821
O         -2.02260       -0.35090        0.72708
H          0.45714       -0.65173       -0.62403
H          1.98376        0.11044        0.08636
H         -1.62343       -0.82532       -0.01857