9

C          0.97050        0.09195       -0.15154
C          0.26521        0.86461       -0.94403
O          0.43256        1.69789       -1.95345
C         -0.88062        1.44417       -1.44034
C         -1.58350        2.55710       -0.78115
O         -1.12639        3.68687       -0.66610
H          0.49494       -0.51069        0.61348
H          2.04919        0.03806       -0.24890
H         -2.58489        2.29628       -0.40220