8

C          0.94792       -0.05462        0.00605
C          0.29830       -0.82737       -0.81180
C         -0.30313       -1.54279       -1.56897
C         -0.95275       -2.31555       -2.38682
H          0.42464        0.59765        0.69646
H          2.03211       -0.03967        0.02181
H         -0.97585       -3.39027       -2.24407
H         -1.49055       -1.90804       -3.23573