11

C          0.88209       -0.01868       -0.07258
C          0.23201       -0.95103       -0.70460
C         -0.41744       -1.88097       -1.35021
C         -0.99292       -3.03033       -0.59595
O         -1.62255       -3.97079       -1.06432
O         -0.49672       -1.68000       -2.71909
O         -1.23591       -2.77412       -3.31193
H          0.35764        0.78027        0.44171
H          1.96720        0.00556       -0.07393
H         -0.81080       -2.99118        0.49141
H         -1.18346       -2.46133       -4.22992