7

C          1.04201        0.02469        0.11173
C          0.39341       -0.18605        1.21519
C         -0.25520       -0.39679        2.31867
H          0.51129        0.20250       -0.81642
H          2.12578        0.02657        0.09895
H          0.20906       -0.20307        3.27871
H         -1.27251       -0.77021        2.29955