8

C          0.83961       -0.04105        0.21381
C          0.27161        0.15217        1.37188
C          0.03169        0.30945        2.63454
C         -0.83821        1.17319        3.33493
H         -1.78562        1.66154        3.18343
O         -1.13400       -0.16986        3.14567
H          0.31184       -0.19016       -0.72171
H          1.92561       -0.05747        0.17840