10

C          0.92322       -0.12704       -0.05710
C          0.27563       -0.54072       -1.10281
C         -0.36558       -0.93008       -2.16456
C         -0.51490       -0.11246       -3.40419
H          0.39230        0.25022        0.80885
H          2.00666       -0.10571       -0.05310
H         -0.82705       -1.91380       -2.16367
H         -0.07736       -0.63873       -4.25775
H         -1.57404        0.06478       -3.61327
H         -0.01725        0.85808       -3.30807