9

C          0.86977        0.05499        0.00555
C          0.23926        1.04125        0.57797
C         -0.31620        2.06173        1.16719
O          0.50159        3.04138        1.68494
C         -1.72022        2.21893        1.30519
O         -2.86550        2.44174        1.47046
H          0.33900       -0.76374       -0.47133
H          1.95564        0.01972       -0.01490
H          1.42429        2.79481        1.51394