12

C          1.01652       -0.03376       -0.07948
C          0.36461        0.87873       -0.81525
O         -1.01936        0.86534       -0.80446
C          0.97403        1.92836       -1.66161
O          2.37246        1.98781       -1.70954
C          0.32077        2.84965       -2.40447
O         -0.88859        3.13704       -2.63621
H          0.46685       -0.76128        0.50714
H          2.09169       -0.10845       -0.01925
H         -1.35514        0.16482       -0.23960
H          2.72780        1.29378       -1.14992
H          1.02918        3.49644       -2.92600