14

C          1.10222       -0.06217        0.20569
C          0.28330        0.83262        0.78656
C         -1.14995        0.84679        0.60478
H         -1.63771        1.81666        0.69584
C         -1.82465       -0.17342       -0.26252
C         -1.48064        0.08752       -1.72546
H          0.72811       -0.88924       -0.38736
H          2.17631        0.03347        0.26010
H          0.70899        1.65024        1.36022
H         -1.52710       -1.18370        0.04586
H         -2.91064       -0.12164       -0.12548
H         -0.40249        0.14182       -1.90816
H         -1.86897       -0.70877       -2.36240
H         -1.89119        1.04882       -2.04739