9

C          1.02917       -0.06990       -0.02044
C          0.37511       -0.47038        1.07644
O         -1.00020       -0.49952        1.15627
C          1.15394       -0.90753        2.27377
O          2.37914       -0.92497        2.32155
H          0.51910        0.25768       -0.91768
H          2.11683       -0.06131       -0.04398
H         -1.36082       -0.18963        0.30750
H          0.53494       -1.22033        3.13053