10

C          1.33038        0.27024        0.20529
C          0.33834        0.92479        0.82312
C         -0.97602        0.53785        0.45788
C         -2.05040       -0.00177       -0.05147
O         -2.06110       -1.00731       -1.00061
O         -0.75222       -1.37298       -1.34578
H          1.08567       -0.49740       -0.51930
H          2.38194        0.43569        0.36145
H          0.54274        1.70217        1.55691
H         -3.06364        0.25804        0.19377