15

C          0.93588       -0.09457       -0.06023
C          0.32526        1.09434       -0.19219
O         -1.05446        1.17748       -0.28132
C          1.06196        2.42610       -0.36889
O          1.87004        2.59529        0.66908
C          1.93867        2.38573       -1.64560
C          1.08590        2.17925       -2.87475
O          1.10859        2.90752       -3.86949
H          0.40714       -1.02998        0.03150
H          2.02168       -0.11706       -0.02132
H         -1.40793        0.30157       -0.07064
H          0.28494        3.18063       -0.57001
H          2.49878        3.32033       -1.77380
H          2.67181        1.56714       -1.62379
H          0.47410        1.26178       -2.88456