8

C          1.10457       -0.07071        0.08124
C          0.37959        0.55668       -0.85822
C         -1.03658        0.47185       -0.73120
O         -2.16741        0.28851       -0.45666
O          1.02141        1.24100       -1.88293
O          0.05225        1.80323       -2.72482
H          0.60318       -0.60714        0.88450
H          2.18694       -0.06623        0.07453