11

C          0.91448       -0.00683       -0.09081
C          0.20638        0.75101       -0.95327
O         -1.17436        0.82781       -1.04067
O         -1.73235       -0.02399       -0.07128
C          0.97561        1.59579       -1.91467
O          2.20030        1.64042       -1.96546
C          0.21958        2.45975       -2.89791
O         -0.99979        2.49167       -2.93423
H          0.42426       -0.64676        0.63746
H          2.00065       -0.01513       -0.08137
H          0.86388        3.04937       -3.56892