16

C          1.03584        0.04902        0.07760
C          0.34250        0.82199       -0.76915
C         -1.16807        0.86422       -0.77450
C         -1.83227        2.22671       -0.48671
O         -3.15037        2.04338       -0.38855
C         -1.29021        2.93210        0.72878
O         -0.81418        2.46018        1.75532
O         -1.40966        4.28197        0.51882
O         -1.42038        4.49029       -0.93877
C         -1.51809        3.25932       -1.53664
O         -1.32685        3.09200       -2.73689
H          0.51941       -0.56772        0.80876
H          2.11811        0.03181        0.07364
H          0.86332        1.43304       -1.50095
H         -1.48983        0.49176       -1.75968
H         -1.53424        0.11859       -0.05084