15

C          1.05309       -0.07394       -0.10433
C          0.37679        0.25872        1.00748
C         -1.12643        0.21417        1.17127
C         -1.63396       -0.86697        2.14528
O         -1.29332       -0.67653        3.52147
O          0.12570       -0.96292        3.66314
O         -1.68510        1.50478        1.45887
O         -1.18046        1.94208        2.69891
H          0.55496       -0.37477       -1.01832
H          2.13874       -0.05739       -0.10187
H          0.94223        0.55356        1.88738
H         -1.55122       -0.04734        0.19200
H         -2.72989       -0.86390        2.11886
H         -1.30567       -1.86447        1.82968
H          0.30358       -0.25664        4.31512