16

C          1.11319       -0.01391       -0.02465
C          0.43292       -0.07935       -1.17403
C         -1.06935       -0.04201       -1.28465
C         -1.59386        1.16678       -2.10597
O         -1.21034        1.11317       -3.37519
C         -3.12003        1.12782       -2.06528
O         -3.81530        2.00097       -1.53541
C         -3.88830       -0.06514       -2.64410
O         -3.42532       -1.12387       -3.04292
H          0.59508        0.06557        0.92345
H          2.19593       -0.01235       -0.03252
H          0.95876       -0.13818       -2.12540
H         -1.39880       -1.00363       -1.69621
H         -1.51020        0.00514       -0.27686
H         -1.32710        2.05359       -1.50829
H         -4.97578        0.08806       -2.60321