9

C          1.01086       -0.08257        0.05056
C          0.30527        0.89318       -0.53540
C         -1.18731        0.92811       -0.55638
H          0.51955       -0.91241        0.54890
H          2.09578       -0.07143        0.04387
H          0.82829        1.71082       -1.02641
H         -1.54826        1.83724       -0.06634
H         -1.54826        0.92275       -1.58915
H         -1.62239        0.06684       -0.03917