13

C          0.93118       -0.01551        0.05035
C          0.23815       -0.86822       -0.72085
C         -1.26524       -0.90116       -0.80190
C         -1.82531       -0.61076       -2.21837
O         -1.67071       -1.66694       -2.98774
O         -3.23730       -0.52662       -2.07566
H          0.41706        0.70804        0.67061
H          2.01233       -0.02253        0.04073
H          0.75512       -1.57783       -1.36053
H         -1.62339       -1.87345       -0.43016
H         -1.69652       -0.16494       -0.10914
H         -1.48448        0.39084       -2.51027
H         -3.45253       -1.47407       -2.13594