18

C          1.03769       -0.12238        0.03669
C          0.34923        0.90003       -0.48382
C         -1.15915        0.99319       -0.40284
C         -1.70781        2.19692        0.40952
O         -2.89070        1.85017        0.92482
C         -0.77675        2.69614        1.49215
O         -0.00196        2.04235        2.18969
O         -0.87829        4.05432        1.62792
O         -1.51482        4.59406        0.42396
C         -1.83960        3.48591       -0.41252
O         -1.04386        3.55307       -1.59779
H          0.51887       -0.94666        0.51473
H          2.11947       -0.10250        0.06437
H          0.90750        1.73426       -0.88890
H         -1.55747        1.02550       -1.42795
H         -1.53773        0.04281        0.00671
H         -2.86746        3.64865       -0.75556
H         -0.14807        3.33656       -1.31015