16

C          1.09891       -0.03874        0.04103
C          0.41245        1.08503        0.27425
C         -1.09347        1.16401        0.33274
C         -1.64142        1.62127        1.72295
O         -1.24631        2.85533        1.99738
C         -3.16539        1.65743        1.65888
O         -3.87599        0.79262        2.48758
C         -3.87519        2.35744        0.81667
O         -4.50999        2.97231        0.03226
H          0.58119       -0.97456       -0.13225
H          2.18158       -0.03102        0.04700
H          0.93258        2.02211        0.46691
H         -1.43352        1.82270       -0.47965
H         -1.51337        0.17230        0.10408
H         -1.35137        0.81899        2.41801
H         -3.21685        0.40244        3.08658