10

C          1.01870       -0.01286       -0.12688
C          0.31464        0.66943        0.78474
C         -1.18383        0.61610        0.85581
C         -1.53145       -0.24374        1.99177
O         -1.73524       -0.99751        2.87370
H          0.52136       -0.61326       -0.88334
H          2.10275       -0.02563       -0.10243
H          0.83511        1.22713        1.56276
H         -1.59771        1.62865        0.93036
H         -1.60048        0.17175       -0.05549