17

C          0.99645        0.10424        0.05606
C          0.31061       -0.92955       -0.44720
C         -1.19765       -1.01278       -0.51998
C         -1.74461       -1.12496       -1.97407
O         -1.39621       -2.28121       -2.52862
C         -3.27340       -1.07112       -1.93342
C         -3.97053       -0.11915       -2.57482
O         -3.92134       -2.01975       -1.15500
H          0.48131        0.96860        0.45734
H          2.07911        0.09968        0.04376
H          0.83312       -1.78374       -0.87260
H         -1.53003       -1.85411        0.10395
H         -1.62532       -0.10971       -0.05866
H         -1.41294       -0.19396       -2.46179
H         -5.04809       -0.07240       -2.54721
H         -3.43875        0.63660       -3.14100
H         -4.85792       -1.98960       -1.38491