13

C          0.92997       -0.00966       -0.17100
C          0.37404        1.20656        0.49070
H         -0.61306        1.54680        0.20679
C          0.89829        1.58876        1.84042
C          0.42864        0.59194        2.88644
H          0.58168       -0.06980       -1.20635
H          0.59295       -0.90878        0.35215
H          2.02167        0.01159       -0.17214
H          1.99024        1.63815        1.82096
H          0.53590        2.59286        2.09616
H          0.80703       -0.41386        2.66888
H          0.78816        0.87446        3.87974
H         -0.66405        0.54062        2.91457