10

C          0.95627       -0.04254       -0.13296
C          0.39392       -0.21864        1.23446
H         -0.59597        0.16570        1.44769
C          0.95627       -1.28562        2.10762
H          0.58383        0.88522       -0.57818
H          0.65462       -0.87743       -0.77111
H          2.04772        0.00782       -0.10409
H          0.65462       -2.26894        1.73701
H          2.04772       -1.23447        2.13507
H          0.58383       -1.17232        3.13042