16

C          0.94654       -0.07303        0.10103
C          0.37045        1.09775       -0.60004
H         -0.66672        1.11362       -0.90328
O          0.90850        2.31719       -0.28415
C          0.44556        3.36001       -1.12975
C          0.97961        3.24179       -2.55187
C         -0.02761        3.08000       -3.65791
O          2.18816        3.24216       -2.80252
H          0.59019       -1.00253       -0.35123
H          0.63303       -0.04934        1.14750
H          2.03959       -0.06227        0.05631
H         -0.64958        3.41452       -1.11341
H          0.80677        4.31138       -0.72301
H          0.10675        3.88621       -4.38276
H          0.11938        2.10869       -4.13687
H         -1.04882        3.12527       -3.27171