15

C          1.09394        0.34287        0.06804
C          0.48522       -0.27233        1.28042
H         -0.55046       -0.03187        1.50170
C          1.02352       -1.57356        1.80335
C          0.55279       -2.76879        0.97360
O          1.21335       -2.79650       -0.29697
O          0.20459       -2.45944       -1.29410
H          0.89106        1.41496        0.03083
H          0.64887       -0.08860       -0.82767
H          2.17562        0.18430        0.03659
H          2.11835       -1.53361        1.83714
H          0.67353       -1.69551        2.83610
H          0.83424       -3.69424        1.48702
H         -0.53770       -2.77306        0.86338
H          0.77107       -1.84470       -1.80857