9

C          0.93342       -0.06794        0.03084
C         -0.37044       -0.06794        0.03084
C         -1.89044       -0.06794        0.03084
C         -2.53535        1.04624        0.42045
O         -2.45861       -1.26331       -0.38716
O         -3.85960       -1.13788       -0.34330
H          1.99904       -0.06578        0.03159
H         -3.61931        1.09537        0.43763
H         -1.99759        1.93475        0.73115