10

C          0.91319       -0.00181        0.06089
C         -0.29036        0.00704        0.06596
C         -1.73971       -0.00630        0.11513
O         -2.29566       -0.56399        1.05536
C         -2.48160        0.57269       -1.06420
O         -2.11487        1.91537       -1.30008
O         -2.55140        2.64178       -0.17915
H          1.97850       -0.01367        0.08757
H         -2.24331       -0.01344       -1.95864
H         -3.56263        0.49331       -0.89976