15

C          0.76000       -0.18438       -0.06667
C         -0.44824       -0.18727       -0.07580
C         -1.90123       -0.09865       -0.00632
O         -2.49559       -1.02349        0.54355
C         -2.61158        1.07958       -0.67086
C         -2.32281        2.46199       -0.02803
C         -0.83551        2.81215       -0.17308
O         -2.99363        3.37623       -0.71142
H          1.81798       -0.07755       -0.02548
H         -2.37474        1.06618       -1.74434
H         -3.69106        0.87103       -0.59798
H         -2.50818        2.34689        1.04967
H         -0.50102        2.75706       -1.21815
H         -0.58351        3.79365        0.23645
H         -0.22991        2.12216        0.41064