13

C          0.94414        0.13343       -0.03675
C         -0.26190        0.13149       -0.04274
C         -1.71176        0.07823       -0.07045
O         -2.31429        0.98744       -0.64153
C         -2.41659       -1.02210        0.69552
C         -2.12235       -2.43361        0.16506
O         -0.92896       -2.81293        0.55457
O         -2.98587       -3.32406        0.86119
H          2.00360        0.06296       -0.03558
H         -2.21422       -0.91691        1.77130
H         -3.49879       -0.84461        0.60097
H         -2.44106       -2.45730       -0.88407
H         -2.50915       -3.41950        1.70436