9

C          0.92131        0.05706       -0.23863
C         -0.28220        0.05332       -0.26207
C         -1.69217        0.10937        0.01073
C         -2.07778        0.30060        1.40602
H         -1.41614        0.91293        2.00639
H         -3.02696       -0.02575        1.80160
O         -2.42597        0.78205       -1.02700
O         -2.47888       -0.65261       -0.91861
H          1.97244        0.07948       -0.08285