15

C          0.96019        0.08465        0.03535
C         -0.34367        0.08465        0.03535
C         -1.86367        0.08465        0.03535
C         -2.39260        1.52114        0.32253
O         -2.06582        2.32437       -0.68449
C         -3.93378        1.51127        0.35794
C         -4.46358        0.60556        1.43999
O         -5.20084        0.96507        2.35802
H          2.02308        0.10692        0.02940
H         -2.22057       -0.29463       -0.93147
H         -2.17688       -0.62485        0.80731
H         -2.04978        1.76326        1.34130
H         -4.32463        2.52066        0.53942
H         -4.35048        1.15649       -0.59508
H         -4.20172       -0.45972        1.33976