10

C          0.94541        0.08143        0.01973
C         -0.35845        0.08143        0.01973
C         -1.87845        0.08143        0.01973
C         -2.44297        1.53966        0.04244
O         -2.12110        2.16048       -1.09163
H          2.00791        0.10875        0.00624
H         -2.24153       -0.46826       -0.85823
H         -2.22996       -0.45213        0.91105
H         -3.51612        1.41805        0.24577
H         -2.08841        1.97301        0.99063