13

C          0.88340        0.09344        0.06550
C         -0.32000        0.07202        0.06910
C         -1.77488        0.02737        0.04071
O         -2.32638       -0.12292       -1.04951
C         -2.51752        0.35847        1.33291
C         -2.18199       -0.57871        2.48906
C         -1.62858       -0.05967        3.59690
O         -2.48755       -1.77485        2.24934
H          1.94665        0.07842        0.06703
H         -2.28372        1.40361        1.58412
H         -3.59745        0.34279        1.12804
H         -1.37409       -0.71988        4.41987
H         -1.42845        0.99705        3.70813