13

C          0.91944       -0.07089       -0.05842
C         -0.28954       -0.05907       -0.07207
C         -1.73509        0.00180       -0.10640
O         -2.28670        1.09550       -0.18071
C         -2.49610       -1.30281        0.03659
O         -2.14007       -2.36951       -0.79356
C         -2.25526       -2.26857       -2.10739
C         -2.11312       -2.71685       -3.31400
H          1.98184       -0.05784       -0.06273
H         -2.28741       -1.67452        1.04891
H         -3.57612       -1.11618        0.00814
H         -1.66394       -3.70379       -3.33845
H         -2.38380       -2.25330       -4.25422