11

C          0.90183       -0.01280       -0.01410
C         -0.40203       -0.01280       -0.01410
C         -1.92203       -0.01280       -0.01410
C         -2.50237       -1.22749        0.74123
O         -2.40096       -1.04899        2.04715
O         -3.90861       -1.17408        0.56342
H          1.96488       -0.02507        0.00620
H         -2.28456        0.93780        0.40221
H         -2.27218       -0.03327       -1.05453
H         -2.14739       -2.13589        0.24403
H         -4.12544       -0.71020        1.39149