10

C          0.92745        0.07719        0.07064
C         -0.27801        0.10118        0.05837
C         -1.72808        0.09917        0.00817
O         -2.29041       -0.16621       -1.04846
C         -2.47706        0.37530        1.28027
C         -2.32587       -0.80428        2.12123
O         -2.22706       -1.82917        2.68791
H          1.99219        0.04944        0.05717
H         -2.15801        1.32830        1.72038
H         -3.54142        0.47972        1.04347