15

C          0.87349       -0.00803       -0.06836
C         -0.33092        0.02901       -0.06089
C         -1.77734        0.06851       -0.10582
O         -2.33312        0.62723       -1.04602
C         -2.53046       -0.66401        0.99663
O         -2.23124       -2.05029        1.11658
C         -2.44505       -2.74859       -0.04491
H         -2.19399       -2.22550       -0.95869
C         -2.20467       -4.20728        0.00889
H          1.93672       -0.03080       -0.09655
H         -2.28714       -0.18497        1.95274
H         -3.61002       -0.53416        0.84789
H         -1.13748       -4.38317        0.16541
H         -2.77285       -4.66698        0.82053
H         -2.49954       -4.66951       -0.93735