13

C          1.02491        0.13110        0.01432
C          0.59560        0.74680        1.33399
C          1.51287        0.45843        2.45297
H          2.52644        0.12827        2.26865
C          1.28375        1.55331        3.41309
O          0.97750        2.68341        2.59631
O          0.61867        2.17436        1.24954
H          0.58586        0.66835       -0.83233
H          0.71817       -0.91905       -0.03708
H          2.11236        0.16627       -0.11415
H         -0.42772        0.43899        1.57648
H          2.16262        1.75933        4.02582
H          0.42461        1.34467        4.05615