14

C          0.91900        0.05284        0.05971
C          0.41571       -0.61980        1.33143
O         -0.87221       -0.42042        1.49826
O          0.73769       -2.03029        1.25387
O          0.85576       -2.51180        2.64558
C          1.56496       -1.48738        3.33613
O          2.93030       -1.84292        3.46788
C          1.28536       -0.25946        2.50160
O          1.79708        0.84161        2.72054
H          0.62479        1.10826        0.00072
H          0.56069       -0.45986       -0.84162
H          2.01539        0.02094        0.01198
H          1.12285       -1.36045        4.32721
H          3.24041       -1.87171        2.54684