13

C          0.97885       -0.12461        0.08649
C          0.36202       -1.47445       -0.21418
C          1.18151       -2.77916       -0.10575
C         -0.07677       -3.30322        0.59550
O         -0.48075       -1.93516        0.89345
H          0.66398        0.26286        1.06156
H          0.65825        0.60562       -0.66595
H          2.07237       -0.15653        0.06614
H         -0.23796       -1.42912       -1.13363
H          1.42713       -3.26876       -1.04879
H          2.06529       -2.73991        0.53999
H          0.08671       -3.90410        1.48978
H         -0.81749       -3.78564       -0.05388