13

C          0.95176        0.04852        0.04858
C          0.43018       -0.30236        1.43596
O          1.28693        0.36020        2.40604
O          2.22673       -0.67504        2.91649
C          1.61134       -1.85679        2.59691
C          0.58267       -1.73137        1.77848
O         -0.20487       -2.75429        1.33016
O         -1.21605       -2.19171        0.54024
H          0.62715        1.05642       -0.23178
H          0.59352       -0.64900       -0.71341
H          2.04821        0.06108        0.02641
H         -0.58808        0.06854        1.59168
H          2.03852       -2.74487        3.02610