12

C          1.09291        0.03462        0.00104
C          0.58410        1.28631       -0.63373
C         -0.18977        1.30314       -1.72959
C         -0.69858        2.55483       -2.36437
H          0.76016       -0.86121       -0.53257
H          0.73701       -0.03061        1.03355
H          2.18693        0.04007        0.01074
H          0.87258        2.22220       -0.16012
H         -0.47825        0.36725       -2.20321
H         -0.34268        2.62006       -3.39688
H         -1.79260        2.54938       -2.37406
H         -0.36583        3.45066       -1.83076