15

C          0.93971        0.00411       -0.10863
C          0.40522       -1.42125        0.00836
C          0.91398       -2.15894        1.24555
C          0.45124       -1.50476        2.52044
O         -0.20268       -2.08968        3.38295
O         -1.02520       -1.46288       -0.09197
O         -1.56102       -0.59589        0.94931
H          0.60222        0.63326        0.72028
H          0.57254        0.47926       -1.02333
H          2.03386        0.01108       -0.11616
H          0.76683       -1.97322       -0.86946
H          0.55533       -3.19400        1.24550
H          2.00984       -2.17496        1.25694
H          0.75411       -0.45490        2.66612
H         -2.46969       -0.94905        0.93289