15

C          1.04377       -0.20905        0.30887
C          0.47708       -1.48068       -0.27838
O         -0.28545       -2.17620        0.38937
C          0.89388       -1.92176       -1.67260
C          0.38457       -1.03324       -2.79108
O          1.14173        0.17547       -2.85427
O          0.32394        1.20986       -2.24605
H          0.86454       -0.19567        1.38744
H          0.52714        0.66536       -0.07433
H          2.11946       -0.14042        0.13132
H          1.98364       -2.01919       -1.70268
H          0.47499       -2.92636       -1.82002
H          0.55704       -1.53870       -3.74925
H         -0.69299       -0.84314       -2.71934
H          1.04917        1.64144       -1.75531