17

C          0.92532        0.06127       -0.19789
C          0.41590       -1.34768       -0.49198
C          0.96739       -2.44021        0.44681
C          0.74691       -2.22721        1.90835
H          0.65601       -3.03664        2.61867
O          1.27155       -1.09659        2.47455
O          0.47748       -0.86940        3.66318
O         -1.01700       -1.38828       -0.60224
O         -1.56544       -0.94147        0.66999
H          0.53028        0.45508        0.74301
H          0.59654        0.76041       -0.97248
H          2.01902        0.07610       -0.15050
H          0.77021       -1.60287       -1.50006
H          0.51581       -3.40134        0.17006
H          2.04783       -2.53705        0.28438
H          0.66689        0.08399        3.72196
H         -2.48336       -1.23358        0.50013