12

C          0.97365        0.05242        0.08705
C          0.45668        1.38767       -0.43932
C          0.97364        1.69401       -1.84150
O         -0.97083        1.46604       -0.37260
O         -1.48883        0.47003       -1.22041
H          0.64663       -0.78209       -0.54150
H          0.58920       -0.13627        1.09484
H          2.06776        0.04373        0.12206
H          0.82423        2.17375        0.22980
H          0.64662        0.94024       -2.56490
H          0.58918        2.65872       -2.18874
H          2.06775        1.72718       -1.85568