17

C          1.05354        0.11554        0.00362
C          0.50726        1.47831        0.47229
O          0.88543        2.37742       -0.42396
C         -1.04719        1.45453        0.49487
C         -1.60585        0.42843        1.45625
C         -2.35976        0.75516        2.51348
C         -2.84523       -0.27909        3.44228
O         -3.55704        0.00033        4.40292
H          0.68258       -0.15446       -0.99388
H          0.75257       -0.68428        0.68833
H          2.14929        0.10341       -0.02175
H          0.83387        1.59367        1.51678
H         -1.42773        2.45124        0.76312
H         -1.44833        1.23120       -0.50439
H         -1.35200       -0.60711        1.24990
H         -2.62439        1.78084        2.73277
H         -2.53717       -1.31566        3.22919