17

C          0.90636        0.00512       -0.04668
C          0.40848        0.92033        1.05352
O         -0.33053        1.86853        0.76968
C          0.85166        0.66127        2.48953
C          1.72670       -0.34859        2.71646
O          2.37410       -0.75927        3.71660
O          0.32470        1.53046        3.43960
C          0.65641        1.30061        4.80656
C          0.07443        0.02052        5.39976
O          0.56610       -0.64508        6.31141
H          0.53453        0.34691       -1.01605
H          0.53619       -1.01135        0.11685
H          1.99989        0.02163       -0.08969
H          1.93421       -0.96201        1.84718
H          1.73034        1.40669        4.98448
H          0.17859        2.11164        5.37148
H         -0.95952       -0.19243        5.08205