17

C          1.11922        0.03997        0.07260
C          0.58250        1.27647        0.73454
O         -0.21961        1.99080        0.14067
C          0.99045        1.47255        2.21327
O          1.62254        0.55462        2.74625
C          0.48334        2.68672        3.00528
O          0.90695        3.79533        2.42041
C         -1.06139        2.68059        3.04135
C         -1.58492        1.44417        3.74087
O         -2.34864        1.45951        4.70468
H          0.77471        0.02451       -0.96656
H          0.72869       -0.85048        0.57302
H          2.21044        0.04297        0.07521
H          0.80227        2.48942        4.04133
H         -1.44882        3.55499        3.57870
H         -1.51457        2.68999        2.04376
H         -1.29571        0.47989        3.28843