16

C          1.03428       -0.07349       -0.05851
C          0.52761        0.17555        1.35275
C          0.09299        0.38918        2.56333
C         -0.41368        0.63822        3.97459
C         -0.53076        2.16091        4.25416
C         -1.52568        2.80164        3.26354
O         -1.02870        2.32001        5.47453
H          0.67401        0.71236       -0.72820
H          0.67406       -1.04102       -0.41902
H          2.12778       -0.07501       -0.06754
H         -1.38218        0.13071        4.08448
H          0.28482        0.16489        4.67778
H          0.44946        2.59678        4.01192
H         -2.52337        2.34851        3.32563
H         -1.62719        3.88006        3.43290
H         -1.18104        2.67973        2.22941