11

C          1.08788        0.03664       -0.03058
C          0.58121       -1.39404       -0.11323
C          0.14659       -2.62128       -0.18413
C         -0.36008       -4.05197       -0.26679
C          0.36847       -4.65603       -1.39428
O          0.95559       -4.99998       -2.35788
H          0.72757        0.50731        0.88837
H          0.72757        0.60996       -0.88924
H          2.18138        0.04546       -0.03009
H         -0.25217       -4.57707        0.68413
H         -1.42265       -4.02292       -0.53363