11

C          0.94304       -0.06292        0.05288
C          0.43637        0.42486        1.40037
C          0.00174        0.84329        2.55626
C         -0.50493        1.33107        3.90376
O         -0.67709        2.75002        3.88464
O          0.60984        3.31110        3.95479
H          0.58287        0.59609       -0.74200
H          0.58288       -1.07802       -0.13605
H          2.03654       -0.06601        0.04426
H         -1.48168        0.87987        4.10382
H          0.17875        1.03782        4.70817