18

C          0.96477       -0.05086        0.08459
C          0.46709        1.33532       -0.29014
C          0.94916        1.72270       -1.65251
C          0.10781        1.98751       -2.66418
C          0.51909        2.30580       -4.07917
C         -0.01531        1.28285       -5.12812
O         -1.34078        1.35081       -5.17603
H          0.60708       -0.80444       -0.62587
H          0.60374       -0.32516        1.08036
H          2.05924       -0.08724        0.09677
H         -0.62865        1.34527       -0.24361
H          0.82629        2.07001        0.43827
H          2.01997        1.75285       -1.82838
H         -0.96849        1.93794       -2.51293
H          0.18954        3.32433       -4.32524
H          1.61608        2.31652       -4.14556
H          0.53036        1.53295       -6.05171
H          0.45435        0.32242       -4.85866