14

C          1.05937        0.10770       -0.11632
C          0.56328       -1.32985       -0.16709
C          1.05029       -2.17147        1.01347
C          0.55420       -1.65474        2.35590
H          0.67306        0.63482        0.76141
H          0.72247        0.65694       -1.00087
H          2.15214        0.14253       -0.08621
H         -0.53115       -1.33771       -0.20266
H          0.91508       -1.79164       -1.09830
H          0.69849       -3.20236        0.88055
H          2.14472       -2.20766        1.01764
H         -0.53857       -1.61492        2.37902
H          0.89110       -2.31187        3.16354
H          0.94051       -0.65311        2.56802