14

C          1.00950       -0.05278        0.02168
C          0.50804        1.04172       -0.90773
C          0.92185        0.81963       -2.37111
C          0.42129       -0.50172       -3.01844
O         -0.90357       -0.46094       -3.07224
H          0.62314       -1.03508       -0.26449
H          0.68238        0.14063        1.04741
H          2.10308       -0.09709        0.01246
H         -0.58230        1.11961       -0.82764
H          0.91096        2.00442       -0.57002
H          0.59742        1.68321       -2.96890
H          2.02043        0.82205       -2.41754
H          0.96406       -0.56545       -3.97346
H          0.90314       -1.31642       -2.45893