7

O          1.04318       -0.27013       -0.38756
C          1.92995       -0.13239        0.37600
C          2.96827        0.13401        1.36904
C          2.89144        1.55681        1.69704
O          2.78820        2.71929        1.84390
H          2.80587       -0.51691        2.23683
H          3.97720       -0.08677        0.99987