8

O          0.86351       -0.37126        0.08033
C          1.98635        0.02354        0.07812
C          3.22371       -0.56667        0.04861
C          4.38728       -0.10761        0.05804
C          3.32437        1.28279        0.12887
H          5.44287       -0.31870        0.10974
H          3.36641        1.93706       -0.74549
H          3.36717        1.85254        1.06085