9

O          1.29845       -0.01095        0.06999
C          2.49561       -0.04829       -0.02034
O          3.45253        0.90171       -0.17213
C          4.35878       -0.06345       -0.78106
O          5.74111        0.06668       -0.41978
C          3.50196       -1.15356       -0.10207
O          3.49460       -2.27553        0.31691
H          4.24306       -0.05011       -1.86984
H          5.79801       -0.04837        0.54249