11

O          1.09387       -0.05882        0.27293
C          2.29384       -0.04446        0.06786
C          3.14249        1.13860        0.08000
H          3.34463        1.51380        1.07920
C          4.25251        0.79610       -0.72997
C          4.95056        1.60242       -1.53445
O          4.75377        2.94776       -1.70507
O          4.40023       -0.56876       -0.71425
O          3.10241       -1.10352       -0.21744
H          5.73440        1.24538       -2.19231
H          3.99950        3.24335       -1.16530