9

O          1.20229        0.08801       -0.01288
C          2.37774        0.09261       -0.00469
C          3.57993        0.10564        0.01846
C          4.87895        0.08306       -0.02167
O          5.61834        0.65573        0.99616
C          5.60248       -0.55297       -1.15210
O          5.04119       -1.08674       -2.10079
H          5.03179        1.03684        1.67351
H          6.70191       -0.50994       -1.07562