8

O          1.10906       -0.08862        0.00313
C          2.28497       -0.06503        0.05661
C          3.58287       -0.05360        0.08251
O          4.31331       -0.53016       -0.99757
C          4.29459        0.46780        1.26418
O          3.72939        0.90623        2.25784
H          3.69953       -0.83670       -1.69228
H          5.39349        0.43568        1.19140