11

O          1.14077       -0.03489        0.00317
C          2.38134       -0.03711        0.03826
O          3.00087       -0.11367        1.24842
O          4.44348       -0.10714        1.14517
C          3.05078        0.04610       -1.27686
O          2.23598        0.11744       -2.40452
C          4.29638        0.07034       -1.66001
O          5.35504        0.12091       -2.45933
H          4.60332       -0.16808        2.10830
H          1.31658        0.09686       -2.07916
H          6.21045        0.09219       -2.00536