15

O          1.15995       -0.08662        0.30926
C          2.37370       -0.24447        0.43678
C          3.13361       -1.40402       -0.15777
O          3.83968       -1.00121       -1.33163
C          3.02607       -0.64758       -2.39211
C          1.65759       -1.08671       -2.59092
O          1.08692       -2.12399       -2.39990
O          1.23885        0.14397       -2.93715
C          2.51488        0.71878       -2.58669
O          2.43782        1.59019       -1.45087
H          2.99989        0.57822        0.82167
H          3.86773       -1.71339        0.58966
H          2.47142       -2.25448       -0.34322
H          2.97932        1.24369       -3.42326
H          1.58884        1.34251       -1.02499