11

O          0.96756        0.03969        0.06390
C          2.19448       -0.01431        0.02222
C          2.99319        0.13785       -1.25336
C          3.78613        1.37127       -1.27389
H          4.12568        1.87880       -0.38110
C          4.81944        1.07880       -2.25945
O          5.36767        1.90542       -2.96496
O          5.00797       -0.26955       -2.26887
O          3.99221       -0.85702       -1.36500
H          2.78145       -0.13728        0.94769
H          2.31064        0.08421       -2.10979