9

O          0.97603       -0.03496        0.17155
C          2.19940       -0.05086        0.11892
C          3.05812        0.53066        1.21352
O          4.26955        0.56909        1.03851
C          2.40536        1.00056        2.44608
H          1.46121        0.60742        2.78678
O          3.08259        1.78938        3.33951
H          2.77233       -0.47370       -0.72039
H          2.55540        2.03168        4.11971