9

O          1.08460       -0.06484        0.05250
C          2.31160       -0.06121        0.08422
C          3.09394        0.12295        1.34495
C          3.98555       -1.04744        1.61073
O          5.20503       -0.95059        1.71091
H          2.90202       -0.17521       -0.84124
H          3.69552        1.03155        1.25166
H          2.40975        0.23831        2.19038
H          3.48294       -2.02191        1.73667