15

O          0.93352        0.09409       -0.02349
C          2.15174       -0.02868        0.03680
C          2.83961       -1.00614        0.93449
O          3.78624       -1.68282        0.19175
C          3.58983       -2.65145       -0.67002
C          4.15631       -3.50792       -1.45413
C          5.64630       -3.57322       -1.37289
O          6.27399       -4.33068       -2.10757
C          6.48658       -2.72513       -0.38864
O          6.10993       -1.88771        0.41928
H          2.82685        0.61306       -0.55966
H          3.43629       -0.41733        1.64246
H          2.17059       -1.64907        1.50614
H          3.65599       -4.10997       -2.20581
H          7.55603       -2.93388       -0.46177