10

O          0.99965        0.04828       -0.10432
C          2.22440        0.04845       -0.10375
C          2.98211       -0.29623       -1.32257
C          4.31881       -0.29074       -1.30316
C          5.07651       -0.63542       -2.52198
O          6.30126       -0.63525       -2.52140
H          2.81276        0.30222        0.79364
H          2.38770       -0.54278       -2.19439
H          4.91321       -0.04419       -0.43134
H          4.48815       -0.88919       -3.41937