15

O          1.04095        0.17019       -0.37767
O          0.56538       -1.18523       -0.15589
C         -0.85752       -1.10031        0.01425
C         -1.30302       -0.34245        1.27285
C         -0.39689       -0.41602        2.43993
H          0.62535       -0.75194        2.31959
C         -0.65102        0.80822        3.20986
O         -1.00068        1.78519        2.23325
O         -1.42999        1.06274        1.01288
H          1.94201        0.02545       -0.02306
H         -1.29497       -0.66561       -0.89105
H         -1.20572       -2.13754        0.08780
H         -2.30558       -0.68921        1.55262
H          0.23406        1.13592        3.76002
H         -1.48947        0.68011        3.89971