10

C          1.09586        0.02169       -0.25368
H          0.55761        0.93905       -0.04836
H          0.58842       -0.75095       -0.82313
C          2.57793       -0.03907       -0.09839
C          3.06310        0.75842        1.10135
H          2.88752       -1.08354        0.01031
H          3.04288        0.35037       -1.00997
H          2.68888        0.33105        2.03781
H          4.15747        0.75079        1.14075
H          2.73485        1.80153        1.04729