12

C          1.05444       -0.04173        0.09010
H          0.57920       -0.95264        0.44051
H          0.49030        0.86947        0.22659
C          2.54847       -0.00479       -0.05232
O          2.85293       -1.13491       -0.65700
C          3.04310        1.15074       -0.95231
C          2.61153        2.49600       -0.42038
O          3.37629        3.40300       -0.08838
H          2.92166        0.20698        0.95899
H          4.14043        1.15344       -1.00804
H          2.66324        1.07554       -1.98124
H          1.52350        2.66678       -0.39092