12

C          1.05205       -0.01922        0.22454
H          0.55634       -0.86713       -0.24222
H          0.56303        0.43483        1.07784
C          2.54774        0.07329        0.08616
O          2.99202       -0.19225       -1.24024
O          2.68449       -1.54426       -1.50750
C          3.07513        1.45693        0.43952
O          3.76193        1.67791        1.43534
O          2.65978        2.40587       -0.46559
O          3.19133        3.69655       -0.01993
H          3.01101       -0.64143        0.77616
H          2.79871        4.23734       -0.72720