8

C          1.03609        0.14731        0.25638
H          0.50355       -0.53841        0.90331
H          0.51766        1.03644       -0.08270
C          2.50622        0.07208        0.10760
O          2.89784       -1.28612        0.09552
H          2.82348        0.53119       -0.83289
H          3.00185        0.58428        0.93647
H          2.60661       -1.68125        0.93524