9

C          1.14020       -0.13230        0.00504
H          0.60451       -0.23270       -0.93111
H          0.61885       -0.41644        0.91382
C          2.62302       -0.02664        0.03392
C          3.15565        0.72708       -1.13184
H          4.17448        1.09966       -1.09184
H          2.68721        0.65535       -2.10592
H          2.93042        0.47409        0.95738
H          3.05275       -1.03227        0.03557