8

C          1.09632        0.22037       -0.19796
H          0.54968        0.72814        0.59284
H          0.61767        0.11404       -1.16194
C          2.57766        0.09928       -0.06623
C          2.91457        0.13794        1.36036
O          3.09846        0.26020        2.51777
H          2.94783       -0.79926       -0.57515
H          3.02939        0.96644       -0.55528