9

C          1.03869        0.15002        0.01555
H          0.51395        0.26782        0.95734
H          0.53424        0.42133       -0.90487
C          2.46425       -0.01300        0.00814
C          3.13301       -0.62780        0.99101
O          4.49557       -0.73167        1.05024
H          2.98665        0.41265       -0.84209
H          2.67238       -1.10615        1.84683
H          4.87948       -0.24342        0.30136