15

O          1.01803        0.15069        0.12994
C          2.35057        0.08387        0.07403
C          2.86805        1.23954       -0.82751
O          2.39588        2.50230       -0.36033
C          2.89780        0.26566        1.52451
O          2.42985       -0.82389        2.33508
C          4.41674        0.25209        1.54272
O          5.12554        1.16785        1.97042
H          2.81403       -0.83056       -0.33017
H          3.96244        1.26744       -0.84364
H          2.52814        1.12466       -1.86276
H          1.46436        2.27656       -0.14337
H          2.54691        1.19302        1.99024
H          1.48945       -0.85765        2.04936
H          4.88436       -0.65289        1.12319