9

O          0.96967       -0.09871       -0.09387
O          2.37272       -0.11624        0.02883
C          2.79597        1.22313        0.27642
O          2.33113        2.18497       -0.66658
C          2.34682        1.59220        1.67777
O          3.12639        1.81205        2.60510
H          3.89073        1.23380        0.25927
H          2.67738        1.90725       -1.53054
H          1.25567        1.64735        1.83197