11

O          0.94504       -0.11401        0.03188
C          2.27104       -0.00994        0.05540
C          2.83863       -1.45079        0.25594
O          2.38095       -2.28715       -0.81255
C          4.35628       -1.43816        0.26463
O          5.05544       -1.85369        1.19345
H          2.76200        0.39664       -0.84487
H          2.74051        0.60153        0.84383
H          2.49005       -1.89028        1.19721
H          1.44859       -1.97277       -0.87164
H          4.83057       -1.03131       -0.64297