7

O          1.04240        0.05473        0.08918
C          2.37856       -0.03318        0.02230
C          2.99197       -0.86027       -1.18785
O          3.75231       -0.19506       -1.97113
O          2.79487       -2.11681       -1.20140
H          2.92354        0.92550       -0.03735
H          2.89797       -0.49358        0.88112