12

O          0.96365       -0.06685       -0.00360
C          2.22394       -0.09642        0.03197
C          3.05169       -0.97412        0.62154
O          4.42083       -1.03412        0.61978
C          5.09862       -0.02383       -0.10802
C          4.84215       -0.06504       -1.60385
O          4.62743        0.92889       -2.29627
H          2.70256        0.72155       -0.50353
H          2.64983       -1.80492        1.19294
H          4.88891        0.96855        0.30525
H          6.17212       -0.20618        0.02206
H          4.96400       -1.05604       -2.07090