12

O          1.06688        0.02824       -0.17413
C          2.38782       -0.05065       -0.09854
C          2.92329        0.51685       -1.41534
O          3.70753        1.46204       -1.52192
C          2.90056        0.82465        1.05540
C          2.46784        0.28984        2.39575
O          3.25043        0.00111        3.30395
H          2.87723       -1.03056        0.00207
H          2.62086       -0.04027       -2.32003
H          3.99828        0.84845        1.04403
H          2.55890        1.86518        0.97545
H          1.37839        0.22901        2.55680