8

O          1.03784        0.10011       -0.01297
O          2.43894        0.09791        0.08786
C          2.82261       -1.25210        0.25659
C          2.31329       -1.77308        1.57230
O          1.70816       -2.83633        1.69707
H          2.46728       -1.87201       -0.57240
H          3.91601       -1.29046        0.27944
H          2.58891       -1.17880        2.45939