10

O          1.04578       -0.20577       -0.09741
O          2.44582       -0.06182       -0.15238
C          2.78271        0.95222        0.79448
C          2.32094        2.32164        0.30639
O          0.90226        2.44203        0.30053
H          2.36033        0.70107        1.77413
H          3.87381        0.95079        0.88152
H          2.70889        3.10369        0.96643
H          2.67466        2.51179       -0.71114
H          0.54933        1.60056       -0.07275