9

O          1.06329       -0.03602        0.01683
C          2.32143       -0.02843       -0.06502
O          3.05570        0.19356       -1.06882
C          3.06805       -0.32314        1.21571
C          2.69200        0.70463        2.23049
O          2.34679        0.43599        3.38366
H          2.81777       -1.32222        1.58110
H          4.15050       -0.26332        1.05995
H          2.86180        1.75491        1.93780