12

O          1.28209        0.50644        0.24544
C          2.40642       -0.01296        0.05382
H          2.91720       -0.59526        0.81296
C          2.86859       -0.15559       -1.36793
C          2.40999       -1.48600       -1.95116
C          0.90619       -1.54770       -2.05339
O          0.31614       -1.76132       -3.11816
H          2.54351        0.68077       -2.00261
H          3.96692       -0.12784       -1.37019
H          2.83602       -1.62773       -2.94975
H          2.74478       -2.31928       -1.32234
H          0.34427       -1.48311       -1.10706