7

C          1.05702        0.08090       -0.00105
C          0.25185        0.25684        1.05324
C         -1.15057        0.22128        0.84019
O         -2.28789        0.17209        0.54542
H          0.62149       -0.08329       -0.98498
H          2.13666        0.09403        0.07763
H          0.64091        0.42372        2.05328