13

C          0.99721        0.04132       -0.00918
C          0.28486       -0.83916        0.71100
C         -1.21999       -0.80119        0.81822
O         -1.69326       -2.07556        0.34932
C         -1.74833       -0.55775        2.26916
O         -1.36858        0.64562        2.69438
H          0.49077        0.82766       -0.55804
H          2.07802        0.04180        0.02128
H          0.78746       -1.57261        1.33245
H         -1.64148       -0.04773        0.13916
H         -1.34274       -2.15175       -0.55033
H         -2.83256       -0.74499        2.20023
H         -1.43975       -1.44419        2.84794