7

C          0.95811        0.09819       -0.02159
C          0.25582       -0.57328       -0.94602
O         -1.10857       -0.68172       -1.09530
O         -1.71813        0.06188       -0.07157
H          0.46835        0.66779        0.76259
H          2.04224        0.09034       -0.03240
H          0.73205       -1.14441       -1.73230