7

C          0.90127        0.05173        0.01958
C          0.32016       -1.21349       -0.49296
H         -0.68980       -1.49718       -0.22353
H          0.83441       -1.77459       -1.26520
H          0.54475        0.24960        1.03451
H          0.61390        0.88795       -0.62324
H          1.99235       -0.01370        0.04527