11

C          1.08477       -0.12717       -0.03978
C          0.52712       -1.12280        0.91937
C         -0.68868       -1.92851        0.49071
C          0.57100       -2.56489        0.79888
O          1.27743       -3.31609        0.15640
H          0.73371        0.87371        0.23767
H          0.76399       -0.30878       -1.07123
H          2.17860       -0.11240       -0.01807
H          0.63168       -0.78294        1.94063
H         -1.49381       -2.10163        1.18866
H         -0.98525       -1.89776       -0.55169