10

C          1.07499        0.07345       -0.08778
C          0.44093       -1.02413        0.68625
C         -0.66025       -1.83175        0.05147
O          0.67320       -2.34891        0.18927
H          0.75238        1.03811        0.31716
H          0.78883        0.04411       -1.14396
H          2.16551        0.02000       -0.02495
H          0.48766       -0.89100        1.75656
H         -1.43913       -2.21418        0.69647
H         -0.97984       -1.59196       -0.95425