9

C          1.09398        0.02300       -0.08530
C          0.52213       -0.19795       -1.42887
O          1.39827        0.21045       -2.58826
C          1.06339       -1.04093       -2.41437
O          1.33837       -2.17911       -2.66982
H          0.73940       -0.77611        0.57126
H          0.72791        0.97112        0.32357
H          2.18807        0.03713       -0.07173
H         -0.52223        0.06363       -1.46839