10

C          0.91763       -0.09361       -0.03756
C          0.41086       -1.47105       -0.32153
C         -0.35989       -2.14489        0.53900
O         -0.84894       -3.40193        0.33066
H          0.58183        0.27326        0.93799
H          0.56197        0.60323       -0.80252
H          2.01177       -0.08652       -0.04409
H          0.69916       -1.91015       -1.27198
H         -0.67792       -1.75721        1.49951
H         -0.54561       -3.71861       -0.53717