8

C          1.06889        0.03984       -0.06334
C          0.56487        1.07505       -1.04345
H          0.71413       -0.95719       -0.34100
H          0.71413        0.26262        0.94737
H          2.16277        0.02463       -0.04894
H          0.91962        0.85227       -2.05416
H         -0.52902        1.09025       -1.05785
H          0.91962        2.07208       -0.76579