13

C          1.05366       -0.00781       -0.05286
C          0.54650        1.39492        0.27646
C          1.09028        2.48236       -0.66248
O          0.81175        2.30901       -2.04556
O         -0.87783        1.45610        0.38949
O         -1.42060        0.96293       -0.80910
H          0.71258       -0.35380       -1.03305
H          0.68169       -0.73125        0.68014
H          2.14788       -0.03307       -0.04514
H          0.91473        1.63784        1.28114
H          0.68126        3.45721       -0.37660
H          2.17957        2.53133       -0.56816
H          0.76078        1.35740       -2.25268