10

C          1.09980       -0.01613       -0.01284
C          0.58922        0.62204       -1.28867
C          1.05769       -0.15944       -2.48587
O          0.29261       -0.66444       -3.30185
H          0.75221       -1.05118        0.07220
H          0.74449        0.53889        0.86065
H          2.19454       -0.03027        0.01073
H         -0.50493        0.65010       -1.28767
H          0.96005        1.64753       -1.38123
H          2.15103       -0.23479       -2.61490