11

C          1.02340       -0.07335       -0.08306
C          0.52886       -0.03605        1.35309
C          1.02340        1.20499        2.07680
H          0.66882        0.79870       -0.64159
H          0.65805       -0.97287       -0.58844
H          2.11735       -0.08275       -0.11989
H         -0.56648       -0.05377        1.36358
H          0.87456       -0.93067        1.88258
H          0.66881        2.11420        1.58106
H          0.65804        1.21522        3.10851
H          2.11734        1.23276        2.10276