7

C          1.07634       -0.05988        0.03367
O          0.58488       -1.38366       -0.13331
O          1.10059       -1.82661       -1.41966
H          0.71737        0.32613        0.99104
H          0.70534        0.58221       -0.77044
H          2.17017       -0.06375        0.03925
H          0.69574       -2.71229       -1.39382