9

O          1.44975        0.36105        0.32503
C          2.17865       -0.21816       -0.39213
O          2.97942       -0.86622       -1.23243
C          4.34492       -0.68115       -0.91972
C          4.87684        0.71639       -1.17285
O          5.63297        1.30076       -0.40249
H          4.57455       -0.99221        0.10698
H          4.90690       -1.33806       -1.59241
H          4.61529        1.15595       -2.15023