7

O          1.04312       -0.00279        0.13690
C          2.24733        0.07676        0.02787
C          3.33493        1.14500        0.08269
O          4.20117        0.12349       -0.43744
O          3.15445       -0.89650       -0.21183
H          3.20029        1.99173       -0.59005
H          3.63445        1.44908        1.08581