7

O          1.05479       -0.20153        0.03409
C          2.26945       -0.02896        0.00833
C          2.91802        1.15481        0.58809
H          3.84132        1.54062        0.18991
O          2.24842        1.97791        1.45109
H          2.95233       -0.75227       -0.46299
H          2.77273        2.74330        1.73908