8

O          1.01733        0.09630        0.05092
C          2.24486        0.06292        0.07737
C          3.03343       -0.91764        0.91336
O          3.86553       -1.71502        0.08934
H          2.84691        0.76811       -0.51977
H          3.66016       -0.35617        1.61146
H          2.35481       -1.56015        1.48167
H          3.27919       -2.25272       -0.47369