9

O          1.14718       -0.22120       -0.05246
C          0.53525       -0.62687        1.10185
H          1.13255       -0.50806        1.99246
C         -0.93918       -0.79084        1.10275
O         -1.54693        0.47914        1.27642
H          2.09533       -0.02655        0.06705
H         -1.29401       -1.22978        0.16586
H         -1.25239       -1.43784        1.92718
H         -1.07065        0.93014        1.99209