20

C          1.09078        0.17237        0.20728
H          0.52853       -0.58995        0.73550
H          0.60911        1.12524        0.01662
C          2.57538        0.06230        0.10103
C          3.04320       -1.37192       -0.16380
C          2.68036       -1.89321       -1.56430
C          3.16236       -1.03212       -2.74690
O          4.58215       -0.95981       -2.91235
O          5.10844       -0.10682       -1.85888
O          3.05913       -3.27592       -1.71736
O          4.50596       -3.35479       -1.57157
H          2.92466        0.74447       -0.68000
H          3.01667        0.41964        1.03686
H          4.12539       -1.43265       -0.00584
H          2.61871       -2.04918        0.59016
H          1.58392       -1.91480       -1.62599
H          2.78530       -1.47941       -3.67275
H          2.74968       -0.01841       -2.70334
H          5.86854       -0.67988       -1.64005
H          4.59588       -4.26302       -1.92156