23

C          1.07242       -0.02106       -0.19774
H          0.51290        0.85255       -0.51625
H          0.58127       -0.98650       -0.22588
C          2.55371        0.06798       -0.03912
C          2.99015        1.40339        0.57527
C          2.51540        1.57989        2.03566
C          3.07322        0.51360        2.99484
C          4.59632        0.43230        3.04538
O          5.13255        1.53015        3.77963
O          5.88755        2.33334        2.83274
O          2.69285        2.88355        2.61524
O          3.61634        3.65080        1.80244
H          2.90467       -0.77434        0.56662
H          3.01391       -0.05048       -1.02507
H          4.08226        1.47978        0.51529
H          2.61490        2.23077       -0.04051
H          1.42585        1.45929        2.03731
H          2.69852        0.72036        4.00464
H          2.68210       -0.46853        2.70611
H          4.88336       -0.47334        3.58875
H          5.04828        0.34303        2.05084
H          5.65023        3.19000        3.21973
H          3.98981        4.16199        2.53563