26

C          0.93188       -0.20036       -0.23449
H          0.42603        0.57554       -0.79746
H          0.46248       -1.17149       -0.14679
C          2.40442       -0.08240       -0.01451
C          2.96192        1.35012        0.21134
O          2.59814        1.93464        1.47389
O          1.18549        2.28370        1.38864
C          4.50433        1.33408        0.16784
C          5.07836        0.90606       -1.19135
C          4.60166        1.78291       -2.35276
C          5.04315        3.22739       -2.17844
O          2.85585       -1.03555        0.96284
O          2.32839       -0.62743        2.25923
H          2.82141       -0.44812       -0.95945
H          2.58315        2.02468       -0.56532
H          0.97069        2.04799        2.31158
H          4.88804        2.32475        0.44175
H          4.89225        0.67087        0.95157
H          6.17332        0.92901       -1.14253
H          4.82209       -0.13853       -1.40103
H          5.00359        1.38924       -3.29270
H          3.51146        1.73905       -2.45470
H          6.13490        3.28595       -2.13206
H          4.69491        3.84000       -3.01334
H          4.63944        3.66785       -1.26164
H          2.97090       -1.13629        2.79575