17

C          0.99475       -0.06037       -0.30048
H          0.45807        0.72749       -0.81727
H          0.49347       -1.00849       -0.14457
C          2.47718        0.02424       -0.15553
C          2.96286        1.44190        0.16309
C          2.47995        1.97724        1.51654
C          2.97878        1.14768        2.66479
C          3.77334        1.61832        3.63494
H          2.80795       -0.67864        0.61655
H          2.92981       -0.31176       -1.09346
H          4.06037        1.45452        0.13881
H          2.62943        2.12764       -0.62684
H          2.81837        3.01583        1.62150
H          1.38465        2.00728        1.54702
H          2.67561        0.10403        2.70138
H          4.11825        0.96624        4.42976
H          4.09103        2.65452        3.64942