15

C          0.85739       -0.14221       -0.30349
H          0.19898        0.34522       -1.01330
H          0.49301       -1.02227        0.21402
C          2.32380        0.14197       -0.32670
C          2.62933        1.57437       -0.78156
C          2.59679        2.52121        0.37975
C          3.67623        3.53698        0.63951
O          3.64875        2.28325        1.32564
H          2.74085       -0.04982        0.66959
H          2.79377       -0.56937       -1.01361
H          3.61556        1.59345       -1.26213
H          1.91069        1.91182       -1.53859
H          1.59776        2.72479        0.74598
H          3.44779        4.40687        1.24241
H          4.42900        3.69493       -0.12286