16

C          0.97978        0.03281        0.28197
H          0.44152       -0.78939        0.73816
H          0.47557        0.98929        0.19014
C          2.46079       -0.03726        0.10225
C          2.96857       -1.43858       -0.28121
C          2.45801       -1.88012       -1.65557
C          4.49888       -1.45692       -0.26837
H          2.75925        0.68969       -0.66195
H          2.92603        0.27770        1.04386
H          2.61616       -2.16298        0.46411
H          2.79305       -1.19536       -2.44190
H          2.82851       -2.88153       -1.90106
H          1.36448       -1.91982       -1.68296
H          4.88288       -1.17327        0.71732
H          4.87834       -2.45823       -0.49827
H          4.91089       -0.76005       -1.00599