15

C          1.01018        0.37352       -0.07054
H          0.46591        0.60945        0.83687
H          0.48809        0.43288       -1.01909
C          2.49469        0.17637       -0.04008
C          2.98387       -0.57612        1.20843
C          2.27982       -1.87881        1.41304
C          1.93540       -2.71487        0.19272
O          2.96962       -3.10128        1.10614
H          2.79704       -0.36451       -0.94473
H          2.97560        1.15683       -0.09191
H          4.06973       -0.71554        1.16626
H          2.78635        0.05554        2.08642
H          1.69760       -1.91252        2.31921
H          0.92869       -3.10860        0.20591
H          2.29437       -2.46626       -0.79536