17

C          1.11113       -0.16736       -0.20124
H          0.58099        0.24523       -1.05240
H          0.61517       -0.92176        0.39843
C          2.59277        0.00303       -0.09305
C          3.08983        1.36944       -0.57803
C          2.62550        2.49217        0.30609
C          3.45250        3.30925        0.97736
C          2.97151        4.40448        1.86938
H          2.90456       -0.16197        0.94552
H          3.05904       -0.77988       -0.70042
H          4.18589        1.34717       -0.61953
H          2.74044        1.55812       -1.60046
H          1.54963        2.62770        0.39649
H          4.52892        3.18356        0.89159
H          3.34265        4.24469        2.88608
H          3.34173        5.36867        1.50961
H          1.87846        4.45060        1.90979