23

C          1.02050       -0.18080       -0.09225
H          0.46006        0.20026       -0.93929
H          0.52743       -0.85579        0.59613
C          2.49972       -0.00852       -0.04961
C          2.92819        1.35134       -0.60572
C          2.45335        2.54136        0.24446
C          3.06696        2.56459        1.65387
C          4.60632        2.53522        1.70189
O          5.25501        3.70132        1.18530
O          5.14147        3.66736       -0.26425
O          2.51418        3.62368        2.45543
O          2.85115        4.88385        1.81357
H          2.85395       -0.13946        0.97845
H          2.96318       -0.80621       -0.63884
H          4.01926        1.35956       -0.69943
H          2.54896        1.47076       -1.62791
H          2.67614        3.47469       -0.28414
H          1.35877        2.53622        0.32748
H          2.72546        1.65901        2.17040
H          4.91632        2.46762        2.74955
H          5.00863        1.64531        1.20464
H          4.87901        4.60292       -0.36442
H          2.60112        5.45145        2.56990