12

C          0.98303        0.19831       -0.19846
H          0.45836        1.03191        0.25669
H          0.49267       -0.31566       -1.01943
C          2.46450        0.07557       -0.04829
C          2.96247        0.44132        1.34387
C          2.50776       -0.56247        2.37052
O          3.28408       -1.20935        3.07007
H          2.77213       -0.94545       -0.30307
H          2.92269        0.74935       -0.78024
H          4.05796        0.46397        1.34736
H          2.60497        1.43086        1.64801
H          1.41704       -0.66511        2.49906