12

C          0.91254       -0.02478       -0.24268
H          0.40646        0.79167       -0.74584
H          0.39009       -0.96850       -0.13747
C          2.39366       -0.01712       -0.11486
C          3.06237        1.28807        0.16285
C          3.73376        1.94670       -1.02325
O          2.55173        2.49564       -0.42747
H          2.68000       -0.71622        0.68099
H          2.80352       -0.44014       -1.03894
H          3.44106        1.38743        1.16732
H          4.71350        2.36316       -0.84237
H          3.58906        1.54692       -2.01834