18

C          0.76928       -0.50852       -0.00088
H          0.14466       -0.59481       -0.87962
H          0.40319       -0.86940        0.95388
C          2.16891       -0.01819       -0.13070
C          2.24085        1.11336       -1.15790
C          3.28472        2.12211       -0.71554
C          3.64974        3.24913       -1.68542
C          5.07312        2.71587       -1.54486
O          4.61515        1.55415       -0.81820
H          2.52133        0.31213        0.85332
H          2.82290       -0.84397       -0.43606
H          2.48431        0.69683       -2.14338
H          1.27362        1.62084       -1.25986
H          3.09852        2.49526        0.29930
H          3.49660        4.25923       -1.29338
H          3.22027        3.17041       -2.68664
H          5.74513        3.31319       -0.92470
H          5.56241        2.44037       -2.48311