26

C          0.96932        0.15589        0.31169
H          0.40451       -0.55225        0.90828
H          0.48238        1.07873        0.01518
C          2.45670        0.04643        0.23095
C          2.94258       -1.40340        0.12990
C          2.56313       -2.08569       -1.19311
C          3.00639       -1.35282       -2.48830
O          4.43373       -1.31731       -2.66849
O          4.97552       -0.34433       -1.73166
C          2.44144       -2.02839       -3.74872
C          0.92030       -2.02651       -3.79951
O          2.93965       -3.47767       -1.18295
O          4.39052       -3.54172       -1.08572
H          2.80588        0.64224       -0.61760
H          2.88705        0.50914        1.12385
H          4.02583       -1.44133        0.28267
H          2.52550       -1.99260        0.95844
H          1.46799       -2.11650       -1.19207
H          2.63893       -0.32038       -2.49073
H          5.73523       -0.89041       -1.45106
H          2.82669       -1.50270       -4.63192
H          2.81997       -3.05424       -3.82928
H          0.53076       -1.00540       -3.73277
H          0.57076       -2.46723       -4.73702
H          0.48312       -2.61322       -2.98682
H          4.47056       -4.47763       -1.35840