20

C          0.96710       -0.27092        0.14357
H          0.42287       -0.94382       -0.50989
H          0.47167        0.09806        1.03357
C          2.44978       -0.17144        0.02417
C          2.91607       -0.19881       -1.43388
C          2.47242        1.03137       -2.23988
C          2.97824        2.35643       -1.65989
C          4.47803        2.41652       -1.63671
C          5.18703        3.34435       -2.29308
H          2.79655        0.73605        0.52982
H          2.89576       -1.01093        0.56495
H          4.00893       -0.28288       -1.45547
H          2.54346       -1.10382       -1.92928
H          2.82469        0.92662       -3.27459
H          1.37719        1.06170       -2.29470
H          2.56598        3.18147       -2.25239
H          2.59890        2.50567       -0.64333
H          5.01288        1.66001       -1.06746
H          6.27026        3.33119       -2.26844
H          4.69377        4.12214       -2.86370