26

C          1.06202        0.11873        0.27868
H          0.49755       -0.52501        0.94535
H          0.56623        0.97839       -0.15547
C          2.54563       -0.01583        0.19752
C          2.99796       -1.47521        0.27611
C          2.53126       -2.31926       -0.92289
C          3.07249       -1.80414       -2.27584
C          4.59730       -1.77844       -2.43456
C          5.29149       -3.13267       -2.50150
O          4.83890       -3.94313       -3.58701
O          3.58592       -4.55907       -3.18046
O          2.70121       -3.73458       -0.75065
O          3.80384       -3.98872        0.16404
H          2.90260        0.45589       -0.72385
H          2.99354        0.54661        1.02138
H          4.09180       -1.50250        0.35176
H          2.63177       -1.92975        1.20551
H          1.44118       -2.22402       -0.98867
H          2.61887       -2.35910       -3.10272
H          2.71720       -0.77632       -2.42377
H          4.82238       -1.24093       -3.36411
H          5.04604       -1.18400       -1.63010
H          6.35951       -2.96106       -2.67570
H          5.25776       -3.67187       -1.56053
H          3.15907       -4.52570       -4.06550
H          4.16645       -4.74925       -0.33259