10

C          1.17014       -0.17449        0.17484
H          0.67572       -0.99716       -0.31911
H          0.67917        0.41800        0.93403
C          2.62969       -0.06743        0.03197
O          3.17920       -0.47369       -0.98919
C          3.38613        0.51053        1.21446
O          3.02940        1.85471        1.47953
H          3.14798       -0.09811        2.09345
H          4.46341        0.44214        1.03831
H          3.30006        2.37396        0.70085