9

C          1.00850       -0.12624        0.23783
H          0.48077       -1.06081        0.08195
H          0.50259        0.64713        0.80747
C          2.49040       -0.05016        0.09059
C          2.97058       -0.84533       -1.10164
O          3.69160       -0.38043       -1.98334
H          2.80456        0.99133       -0.02966
H          2.95985       -0.46051        0.98794
H          2.69567       -1.91340       -1.11077