15

C          1.14847        0.20350       -0.25342
H          0.58110        0.89577        0.35705
H          0.66246       -0.27051       -1.09833
C          2.62560        0.08030       -0.07913
C          3.08348        0.28475        1.33121
O          4.50872        0.19444        1.49697
C          3.91268        1.45407        1.81831
C          4.36439        2.58702        0.96922
H          2.92900       -0.92376       -0.39986
H          3.10426        0.78564       -0.76457
H          2.46780       -0.23791        2.05453
H          3.83484        1.72886        2.86328
H          3.59779        3.36700        0.95177
H          5.27662        3.02223        1.39046
H          4.58530        2.29478       -0.06135