12

C          1.11741       -0.10524       -0.06010
H          0.56205        0.20464       -0.93758
H          0.63789       -0.82077        0.59951
C          2.59944        0.05435        0.00586
C          3.09443        1.38323       -0.55129
O          3.81530        2.13058        0.11647
C          2.74168        1.72320       -1.97722
H          2.92680       -0.02178        1.04930
H          3.07500       -0.75497       -0.55497
H          3.11625        0.94305       -2.64436
H          1.66022        1.82752       -2.08575
H          3.20262        2.67581       -2.25261