18

C          1.06555        0.21084       -0.13544
H          0.58770        1.09212        0.27579
H          0.51862       -0.31921       -0.90413
C          2.55346        0.08583       -0.02808
O          2.95966        0.49208        1.28769
O          2.75821        1.94030        1.34562
C          3.05742       -1.34864       -0.26772
C          2.64802       -1.94558       -1.61995
C          3.11470       -1.09968       -2.79541
H          3.03162        0.75999       -0.74644
H          2.99049        2.03869        2.28936
H          4.15374       -1.35683       -0.19052
H          2.71259       -2.00797        0.54034
H          3.06634       -2.95451       -1.71272
H          1.56055       -2.06931       -1.66744
H          4.20688       -1.03570       -2.81167
H          2.77744       -1.53681       -3.73902
H          2.71375       -0.08266       -2.75103