12

C          1.08817       -0.05566       -0.03275
H          0.58094        0.61415       -0.71243
H          0.75432       -1.07353        0.09632
O          2.44964        0.05376       -0.00201
C          2.92706        1.40538        0.08748
C          2.48384        2.23596       -1.08322
C          1.70355        3.32114       -0.95600
H          2.61961        1.83871        1.04760
H          4.02250        1.36115        0.09403
H          2.76961        1.88325       -2.06989
H          1.34453        3.85901       -1.82545
H          1.37888        3.66358        0.02176