10

C          1.17635       -0.03761       -0.13055
H          0.64492        0.90661       -0.19272
H          0.68322       -0.93524       -0.48752
C          2.60362       -0.04255        0.03834
C          3.25465        0.89532        0.73773
C          4.72984        0.90065        0.77929
O          5.34746        1.76125        1.39938
H          3.13327       -0.84799       -0.46467
H          2.75899        1.69300        1.27831
H          5.24266        0.11114        0.20723