10

C         -0.00016        1.16190       -0.12962
H         -0.00058        2.04022       -0.76173
C          1.17141        0.32316       -0.02727
C          0.72721       -0.94317        0.02604
C         -0.72722       -0.94151        0.02538
C         -1.17102        0.32195       -0.02708
H          2.19328        0.66517       -0.04671
H          1.33597       -1.83312        0.05924
H         -1.33612       -1.83211        0.05687
H         -2.19315        0.66442       -0.04671