11

C          1.12003        0.01511       -0.14245
H          0.59592        0.75771       -0.73355
H          0.62120       -0.93358        0.02510
C          2.60108        0.07468       -0.00123
C          3.09553        1.47273        0.21218
C          3.86411        1.83915        1.24887
H          2.90594       -0.57521        0.82711
H          3.05035       -0.32656       -0.91508
H          2.83509        2.21696       -0.53708
H          4.21841        2.85964        1.34997
H          4.16015        1.12692        2.01224