21

C          0.96593        0.12911       -0.31820
H          0.41503        0.98719        0.05030
H          0.45120       -0.58706       -0.94752
C          2.44998        0.06131       -0.17611
C          2.94172        0.60342        1.16570
C          2.45846       -0.16427        2.40905
O          3.03654       -1.48131        2.43508
O          2.17634       -2.33952        1.63345
C          2.92773        0.52606        3.70386
C          2.42608        1.95394        3.86181
H          2.79945       -0.96279       -0.33482
H          2.89124        0.66519       -0.97716
H          4.03883        0.59997        1.15239
H          2.62439        1.64968        1.22291
H          1.36408       -0.23982        2.43547
H          2.88529       -2.93814        1.32757
H          2.59367       -0.06685        4.56541
H          4.02422        0.51500        3.75128
H          1.33291        1.98902        3.83274
H          2.75955        2.37110        4.81666
H          2.81412        2.61074        3.07825