18

C          1.09716        0.10464       -0.22149
H          0.64809        1.01734       -0.59918
H          0.51902       -0.80469       -0.33249
C          2.58357        0.03986        0.01851
C          3.09656        1.40139        0.53106
C          2.61249        1.76572        1.93200
C          3.03081       -1.10402        0.95356
O          2.69703       -2.39045        0.42332
O          1.39685       -2.73750        0.98424
H          3.03401       -0.14565       -0.96564
H          4.19342        1.40049        0.52559
H          2.78708        2.19415       -0.16260
H          2.98936        1.06369        2.68157
H          2.97271        2.76066        2.20971
H          1.51968        1.77497        1.98912
H          4.12531       -1.08315        1.03227
H          2.63935       -1.00459        1.97200
H          1.08717       -3.24968        0.21329