20

C          1.00728        0.27189        0.17705
H          0.45550        0.14277        1.10084
H          0.49843        0.70592       -0.67628
C          2.49370        0.10413        0.14039
C          3.01438       -1.08976        0.95963
C          2.48929       -2.48613        0.53732
O          2.94264       -2.92107       -0.75289
O          2.17492       -2.19923       -1.75354
C          2.97444       -3.55186        1.52164
O          4.45294       -1.04202        1.05979
O          4.98945       -1.16250       -0.28907
H          2.82889        0.03897       -0.89938
H          2.94759        1.02474        0.52760
H          2.67107       -0.92779        1.99173
H          1.39200       -2.49660        0.54616
H          2.93000       -2.02531       -2.34726
H          2.62235       -3.34786        2.53744
H          2.61600       -4.54210        1.22034
H          4.06859       -3.60907        1.53495
H          5.90508       -1.36995       -0.01933