16

C          1.02104       -0.13969       -0.10885
H          0.45915        0.51208       -0.76934
H          0.58173       -1.11672        0.04125
C          2.47186        0.05933        0.16345
O          2.88359        1.41184        0.02872
C          2.51294        2.07606       -1.18011
C          3.02345        1.45806       -2.48108
C          2.48288        0.09638       -2.86999
O          1.59375       -0.08142       -3.68919
H          2.72292       -0.29394        1.16742
H          3.09210       -0.54898       -0.49002
H          1.43218        2.24410       -1.19721
H          2.94062        3.08462       -1.09887
H          2.74468        2.12769       -3.30129
H          4.11392        1.38139       -2.45886
H          2.94239       -0.77792       -2.37779