21

C          1.02076        0.17663        0.04673
H          0.54701        0.99865        0.56934
H          0.47658       -0.24415       -0.78870
C          2.50561        0.02046        0.14823
O          2.90801        0.25189        1.50614
O          2.72592        1.68396        1.74388
C          2.98297       -1.38271       -0.26425
C          2.61072       -1.77066       -1.70374
C          3.10846       -0.77395       -2.75398
C          4.62648       -0.69663       -2.78409
H          2.99809        0.77308       -0.47652
H          2.95553        1.65957        2.69386
H          4.07209       -1.44274       -0.13538
H          2.58809       -2.13607        0.42986
H          3.01329       -2.76650       -1.92540
H          1.52274       -1.86982       -1.79250
H          2.74038       -1.07613       -3.74067
H          2.69264        0.22341       -2.57226
H          5.05232       -1.67594       -3.02301
H          4.95846        0.02087       -3.53875
H          5.03537       -0.37219       -1.82241