12

C          1.09117        0.14522        0.01690
H          0.77678       -0.65103       -0.64664
H          0.55244        0.25367        0.95456
C          2.50272        0.63775       -0.04460
C          3.18317        0.42530        1.27044
C          4.58153       -0.08449        1.44895
O          3.45680       -0.96215        1.52110
H          3.02672        0.11607       -0.85606
H          2.51469        1.70411       -0.29699
H          2.75129        1.02287        2.06640
H          5.08369        0.10497        2.39002
H          5.22837       -0.12666        0.58180