13

C          1.07192        0.08174       -0.12995
H          0.65995        0.78537        0.57235
H          0.63846       -0.17967       -1.08076
O          2.41189       -0.14635       -0.07348
O          2.78952        0.03534        1.32194
C          4.17494        0.00506        1.42151
C          5.03882       -0.04470        0.39009
C          4.66965        0.05179        2.83727
H          6.11009       -0.05013        0.56339
H          4.71719       -0.07739       -0.64323
H          4.31310        0.95902        3.33503
H          4.31011       -0.81802        3.39662
H          5.76408        0.05137        2.89225