18

C          0.98053        0.17534       -0.12626
H          0.41298        0.63564        0.67467
H          0.49996        0.03610       -1.08764
C          2.46321        0.05531       -0.01406
C          2.90937       -0.31637        1.40353
C          2.51493       -1.73727        1.82865
C          3.05215       -2.84291        0.92009
O          4.47657       -2.93934        0.99323
O          5.01704       -1.95666        0.06464
H          2.81698       -0.67662       -0.74658
H          2.91332        1.01237       -0.29675
H          3.99548       -0.19690        1.48622
H          2.48239        0.39640        2.12112
H          2.89053       -1.90179        2.84630
H          1.42216       -1.81318        1.87764
H          2.65948       -3.80361        1.27080
H          2.72020       -2.73967       -0.11831
H          5.82561       -1.76448        0.57883