24

C          1.07647        0.24811        0.01916
H          0.50743        0.58989        0.87644
H          0.59040        0.22859       -0.94948
C          2.56202        0.13089        0.10665
C          3.02844       -0.41051        1.46229
C          2.61874       -1.86542        1.71680
C          3.11087       -2.87038        0.66065
O          4.54318       -2.98912        0.72034
O          5.09691       -1.90051       -0.07405
C          2.54724       -4.27745        0.91358
C          1.02700       -4.34009        0.87816
H          2.91466       -0.49985       -0.71491
H          3.00106        1.11932       -0.05797
H          4.11525       -0.30986        1.54935
H          2.60984        0.20979        2.26580
H          3.00276       -2.16276        2.70098
H          1.52722       -1.88660        1.78619
H          2.80958       -2.57884       -0.35133
H          5.90597       -1.78272        0.46266
H          2.94913       -4.95872        0.15220
H          2.91485       -4.65884        1.87382
H          0.64273       -3.96977       -0.07755
H          0.68576       -5.37052        1.01115
H          0.57625       -3.75031        1.68120