14

C          1.10514       -0.13921       -0.27350
H          0.57647        0.64572       -0.80282
H          0.61083       -1.09485       -0.14238
C          2.58619       -0.04640       -0.09346
C          3.08104        1.37769        0.18168
C          2.63155        1.89854        1.51889
C          3.47569        2.26025        2.49457
H          2.89983       -0.71576        0.71675
H          3.05256       -0.41202       -1.01468
H          4.17694        1.37922        0.12652
H          2.72807        2.05909       -0.60214
H          1.55972        1.97845        1.68860
H          3.10336        2.62241        3.44692
H          4.55077        2.19751        2.36312