17

O          1.11966       -0.30848       -0.08427
O          2.49310       -0.02587       -0.13412
C          2.79282        0.73351        1.03778
C          2.31878        2.19631        0.95807
C          0.79340        2.27336        0.99491
O          0.15561        2.79322        1.91193
C          2.86902        2.97248        2.16558
C          2.81854        2.84898       -0.33533
H          2.41562        0.21942        1.93028
H          3.88817        0.72275        1.10981
H          0.25344        1.85162        0.13261
H          3.96357        2.97707        2.17704
H          2.52833        4.01476        2.14958
H          2.52324        2.53164        3.10828
H          3.91457        2.85513       -0.36785
H          2.46105        2.31763       -1.22395
H          2.47329        3.88516       -0.41618