13

O          1.12950       -0.09562        0.01702
C          2.38610       -0.06977       -0.08277
C          3.08855        0.21785       -1.19315
C          3.09511       -0.40002        1.19218
C          2.47101       -0.70043        2.35195
C          4.60805       -0.40214        1.20038
H          4.16587        0.23122       -1.24476
H          2.55133        0.45447       -2.10663
H          3.01177       -0.93495        3.25735
H          1.38671       -0.71446        2.40611
H          5.00414       -1.14220        0.49630
H          5.00414        0.58668        0.94413
H          5.01581       -0.65739        2.18578