17

O          0.95794       -0.21549        0.11973
C          2.28267       -0.14767        0.12676
C          2.78535       -0.28180       -1.34048
C          2.36460        0.85785       -2.29830
C          2.86682        2.22043       -1.81945
C          2.87933        0.58699       -3.71430
H          2.76469        0.75281        0.53358
H          2.82462       -0.93062        0.67844
H          3.88432       -0.32331       -1.31165
H          2.46417       -1.24804       -1.75649
H          1.26974        0.89321       -2.35460
H          3.96073        2.24130       -1.76934
H          2.54086        3.01377       -2.49953
H          2.47649        2.46853       -0.82834
H          2.51144       -0.37403       -4.08876
H          2.53383        1.36570       -4.40328
H          3.97388        0.56943       -3.74621