15

O          0.44522        0.37310       -0.21046
O          1.78490        0.14071        0.13289
C          1.72739       -0.59018        1.36444
C          2.99707       -1.48635        1.40289
C          2.61173       -2.63513        0.43279
C          4.37203       -0.98769        0.93748
H          1.37815        0.03425        2.17845
H          0.93007       -1.32467        1.37607
H          3.10887       -1.82876        2.44432
H          2.95396       -2.41025       -0.58669
H          3.02167       -3.59430        0.75521
H          1.53270       -2.77530        0.32014
H          4.43883       -0.88057       -0.15675
H          4.70282       -0.05071        1.38982
H          5.11942       -1.75668        1.19516