26

O          1.05384        0.04850       -0.42289
O          2.42074        0.10922       -0.09819
C          2.75266       -1.09309        0.61103
C          2.19886       -1.05250        2.05865
C          0.67735       -1.16155        2.25941
C          0.01856       -2.42395        1.68553
O          0.36918       -3.58359        2.45897
O          1.77737       -3.86480        2.20684
C         -1.50822       -2.34174        1.59915
C         -1.99325       -1.17753        0.74169
C          2.53335       -2.32461       -0.27599
H          3.84129       -1.04041        0.73604
H          2.71351       -1.79045        2.68333
H          2.49053       -0.08248        2.48972
H          0.46752       -1.11752        3.33691
H          0.23664       -0.25364        1.84317
H          0.31035       -2.60039        0.66093
H          1.88652       -4.55533        2.86855
H         -1.87036       -3.27471        1.14499
H         -1.94804       -2.30300        2.60043
H         -1.57422       -1.23397       -0.26957
H         -3.08263       -1.19093        0.65750
H         -1.71540       -0.21030        1.16858
H          3.14370       -2.25354       -1.18012
H          2.80625       -3.25505        0.22467
H          1.52257       -2.40612       -0.67888