17

O          1.18715       -0.01227       -0.44845
O          2.52562        0.26135       -0.12879
C          2.86928       -0.54712        0.99238
C          2.20463       -0.10460        2.29714
C          0.67814       -0.19641        2.35292
C          0.10670       -1.60949        2.30269
O         -0.56589       -2.03213        3.25445
C          0.33742       -2.50344        1.10744
H          2.72203       -1.60175        0.77263
H          3.95320       -0.45772        1.10980
H          2.62245       -0.68766        3.12735
H          2.48734        0.94221        2.47364
H          0.36450        0.23207        3.31739
H          0.18723        0.43795        1.61029
H          0.05137       -2.01281        0.17687
H          1.36563       -2.85851        1.07168
H         -0.26890       -3.40710        1.20056