7

O          1.13348        0.06091       -0.03384
O          2.53404       -0.04141       -0.05631
C          3.05644        1.20278        0.21696
C          2.41811        2.35481        0.46998
H          4.13618        1.13102        0.20120
H          2.97174        3.26531        0.66995
H          1.33385        2.41387        0.48295