15

O          0.95547       -0.09675       -0.17799
C          2.26686       -0.00693       -0.04114
C          2.84304       -0.57494       -1.32651
C          3.64418        0.07832       -2.19737
C          4.14691       -0.57140       -3.45131
C          4.04849        1.50321       -1.96525
H          2.70490        0.98711        0.12759
H          2.75895       -0.58109        0.75936
H          2.56678       -1.60800       -1.53035
H          3.79392       -0.02250       -4.33102
H          5.24198       -0.57784       -3.46468
H          3.80799       -1.60813       -3.55008
H          3.16564        2.14821       -1.89966
H          4.62702        1.58964       -1.03903
H          4.67390        1.88457       -2.77770