18

O          1.19824        0.39390       -0.40327
O          2.49542        0.02237       -0.01357
C          2.80715       -1.17762       -0.72123
C          2.31851       -2.44820        0.01555
C          0.78311       -2.53225        0.03424
C          2.85891       -3.69064       -0.71328
C          2.83861       -2.44442        1.46299
H          2.42035       -1.12900       -1.75011
H          3.89863       -1.20498       -0.80506
H          0.37524       -2.47967       -0.98223
H          0.44512       -3.47550        0.47743
H          0.33442       -1.72630        0.62314
H          3.95392       -3.70008       -0.72827
H          2.52627       -4.61184       -0.22092
H          2.50837       -3.72368       -1.75133
H          3.93363       -2.42738        1.48633
H          2.47942       -1.57032        2.01713
H          2.50611       -3.33665        2.00518