18

O          1.24088       -0.26107        0.31699
O          2.57405       -0.16690       -0.10390
C          2.80856        1.18216       -0.50355
C          2.22208        1.50603       -1.87898
C          0.68750        1.60333       -1.94384
O          0.23016        2.74477       -1.19641
O          0.22659        2.35797        0.20445
C          0.20654        1.81572       -3.39201
O          0.61437        0.77706       -4.27595
H          2.53206        1.89893        0.27570
H          3.89822        1.26258       -0.59232
H          2.64338        2.46476       -2.20821
H          2.57468        0.73245       -2.56913
H          0.21313        0.68388       -1.58853
H          0.15171        3.25951        0.57619
H         -0.88877        1.85021       -3.40869
H          0.55126        2.77838       -3.78653
H          1.58054        0.81073       -4.36658