22

O          1.03911       -0.00936       -0.08861
C          2.36501       -0.03776       -0.07563
C          2.87602        1.42967       -0.04247
C          2.53227        2.20535        1.23758
C          3.02358        1.55062        2.53741
O          4.45768        1.69261        2.65290
O          5.06601        0.52869        2.02257
C          2.45099        2.26455        3.77520
C          0.93214        2.25292        3.85767
H          2.86977       -0.56228        0.74780
H          2.87644       -0.48904       -0.93862
H          3.96501        1.42866       -0.17358
H          2.47890        1.98773       -0.90312
H          2.96117        3.21210        1.15558
H          1.44595        2.33327        1.25578
H          2.74247        0.49410        2.60635
H          5.70275        1.02701        1.47914
H          2.85810        1.78395        4.67457
H          2.81541        3.29904        3.80671
H          0.54614        1.22940        3.83249
H          0.60117        2.72341        4.78825
H          0.47428        2.81539        3.03937