26

O          1.30210        0.47464        0.47220
O          2.58351       -0.05562        0.23927
C          2.89171        0.20971       -1.12689
C          2.33367       -0.88397       -2.03997
C          0.80131       -0.89172       -2.14625
C          0.23053        0.42033       -2.69654
C          0.73615        0.78122       -4.10306
O          0.19927       -0.14089       -5.06679
O          1.07241       -1.30764       -5.07809
C          0.27653        2.18168       -4.53168
C          0.80432        3.29962       -3.64323
H          2.57082        1.21722       -1.41901
H          3.98372        0.20873       -1.20895
H          2.77791       -0.77102       -3.03473
H          2.65639       -1.86331       -1.67005
H          0.47596       -1.73301       -2.76594
H          0.35982       -1.08999       -1.16352
H         -0.86348        0.34893       -2.70675
H          0.47376        1.21651       -1.98863
H          1.83049        0.76976       -4.15781
H          0.35547       -1.97021       -5.15986
H          0.61286        2.35938       -5.56131
H         -0.81859        2.21747       -4.56681
H          1.89834        3.28832       -3.60584
H          0.48445        4.27162       -4.02985
H          0.42586        3.22317       -2.62016