13

O          0.97208       -0.04571       -0.07320
C          2.28746       -0.04414       -0.09965
C          2.72070        1.20651        0.61888
C          3.19263        1.22878        1.87454
C          3.30268       -0.03309        2.63870
O          3.54603       -0.02851        3.84536
C          3.19666       -1.30060        1.88320
C          2.72382       -1.28859        0.62771
H          2.83217       -0.04692       -1.05281
H          2.63600        2.13352        0.06070
H          3.48014        2.14235        2.37152
H          3.48759       -2.20958        2.38659
H          2.64069       -2.21958        0.07590