23

O          1.26885        0.25491        0.31366
O          2.58440       -0.13784        0.00824
C          2.92074        0.48327       -1.23163
C          2.38946       -0.32237       -2.42051
C          0.86619       -0.26076       -2.58740
C          0.28969        1.16526       -2.66037
O          0.65885        1.77176       -3.91288
O          2.01995        2.27197       -3.76071
C         -1.24430        1.16550       -2.59877
C         -1.79884        0.59935       -1.29854
H          2.60817        1.53285       -1.23703
H          4.01360        0.49998       -1.28524
H          2.87218        0.01240       -3.34420
H          2.66936       -1.37512       -2.28981
H          0.59572       -0.80628       -3.50038
H          0.42608       -0.82296       -1.76001
H          0.63960        1.80141       -1.84178
H          2.26766        2.17839       -4.70322
H         -1.59994        2.19765       -2.71486
H         -1.65155        0.61315       -3.45339
H         -1.42088        1.15747       -0.43595
H         -2.89064        0.65917       -1.29280
H         -1.53704       -0.45383       -1.16560