20

O          0.98569       -0.40950        0.56972
O          2.21062       -0.17065       -0.08131
C          2.62114        1.14187        0.30244
C          2.21749        2.18916       -0.75436
O          0.78314        2.39525       -0.71645
O          0.13685        1.36552       -1.51746
C          2.77851        3.58409       -0.37169
C          4.29392        3.71946       -0.33345
C          2.69560        1.79162       -2.16193
H          2.22085        1.39575        1.29264
H          3.71102        1.09606        0.39748
H         -0.31519        0.91122       -0.77621
H          2.38008        4.32899       -1.07433
H          2.37455        3.87713        0.60718
H          4.74511        3.50114       -1.30488
H          4.56706        4.74690       -0.07159
H          4.74095        3.06165        0.41636
H          3.78545        1.71293       -2.21495
H          2.29516        0.82076       -2.47351
H          2.35793        2.52189       -2.90521