8

O          0.94473        0.05091       -0.12469
O          2.34584        0.11579       -0.04747
C          2.72950       -0.78740        0.97000
C          2.22018       -0.31085        2.30245
O          1.61505       -1.02755        3.09771
H          2.37418       -1.80018        0.75603
H          3.82291       -0.80115        1.01249
H          2.49581        0.72100        2.57701