16

O          1.09319       -0.07254        0.00221
C          2.41542       -0.08492        0.02481
C          2.90996        1.30767       -0.45265
C          2.51653        2.47085        0.47694
C          3.01557        2.29254        1.90764
C          4.51954        2.29439        1.95183
O          5.18149        3.10378        2.60331
H          2.92224       -0.28215        0.98137
H          2.93285       -0.80733       -0.62354
H          4.00464        1.27229       -0.53496
H          2.55863        1.52011       -1.47193
H          2.90695        3.40820        0.06133
H          1.42462        2.57552        0.49141
H          2.64343        3.10576        2.53801
H          2.66233        1.35778        2.35234
H          5.02493        1.49670        1.38259