14

O          1.08370        0.19157        0.40885
O          2.35206       -0.22528       -0.04342
C          2.70841        0.65596       -1.10958
C          2.24000        0.08059       -2.44623
O          0.81635        0.20764       -2.56601
O          0.24500       -0.97923       -1.93841
C          2.84980        0.85423       -3.60852
H          2.30124        1.65878       -0.93037
H          3.80086        0.73055       -1.09620
H          2.51735       -0.97710       -2.53202
H          0.06363       -0.56849       -1.06294
H          3.94268        0.80394       -3.59172
H          2.49750        0.44817       -4.56302
H          2.54552        1.90661       -3.58340