8

O          1.15098       -0.07061       -0.14609
C          2.46479       -0.05225       -0.01219
O          2.99473       -0.23546       -1.34838
C          4.33855       -0.25359       -1.48064
O          5.20195       -0.13591       -0.62232
H          2.93812        0.86587        0.36834
H          2.93812       -0.83407        0.60142
H          4.57170       -0.39972       -2.54641