13

O          1.10035       -0.18255        0.07263
O          2.49312       -0.01428        0.17365
C          3.09897       -1.25243        0.15288
C          4.49635       -1.24205        0.04352
C          5.20065       -2.44242       -0.07012
C          4.52433       -3.65644        0.00745
C          3.14311       -3.67416        0.20566
C          2.42797       -2.47437        0.24255
H          5.03901       -0.30121        0.03489
H          6.27856       -2.42907       -0.21803
H          5.07068       -4.59255       -0.08182
H          2.62208       -4.62016        0.32229
H          1.34460       -2.51159        0.34221