17

O          1.14928       -0.39001       -0.62358
O          2.38219        0.06815       -0.12091
C          2.73960       -0.82197        0.93538
C          2.30263       -0.27359        2.30545
O          0.87187       -0.36405        2.45993
O          0.26156        0.79530        1.82510
C          2.85666       -1.19385        3.40359
C          2.82844        1.14977        2.54684
H          2.32559       -1.82152        0.74973
H          3.83218       -0.91571        0.90514
H         -0.15536        0.31233        1.08143
H          3.95107       -1.21498        3.40762
H          2.51196       -0.86569        4.39145
H          2.48966       -2.21905        3.27512
H          3.92366        1.17023        2.55884
H          2.49606        1.84746        1.77041
H          2.46119        1.54391        3.50055