17

O          1.12463       -0.31487       -0.55787
O          2.32746        0.09040        0.05202
C          2.74803       -0.99873        0.87513
C          2.31839       -0.75273        2.32320
O          0.88979       -0.88782        2.43420
O          0.32142        0.41989        2.13642
C          2.89990       -1.78555        3.29769
C          4.41688       -1.79987        3.37777
H          2.35894       -1.95083        0.49335
H          3.83830       -1.02862        0.79447
H          2.60855        0.25676        2.64234
H         -0.09047        0.16791        1.28280
H          2.49600       -1.58498        4.29875
H          2.53763       -2.78724        3.03383
H          4.80748       -0.81217        3.64030
H          4.74207       -2.50916        4.14594
H          4.86910       -2.11511        2.43335