16

O          1.11974       -0.05378       -0.25256
C          2.43843       -0.03435       -0.13807
C          2.93775       -1.12765        0.83269
O          3.72476       -2.01193        0.45122
C          2.58551       -1.05097        2.32584
C          3.14863        0.21126        2.96841
C          1.09104       -1.17991        2.58133
H          3.01862       -0.22038       -1.05524
H          2.92758        0.88106        0.22785
H          3.07290       -1.91235        2.80611
H          2.72422        1.11331        2.51772
H          2.92190        0.23657        4.03986
H          4.23672        0.25980        2.85211
H          0.69539       -2.08353        2.10593
H          0.87516       -1.22747        3.65248
H          0.54096       -0.31902        2.19343