16

O          0.97673        0.22591       -0.00990
C          2.29808        0.10811        0.00837
C          2.77583        0.39700        1.45604
C          2.39770       -0.69057        2.47659
C          3.12069       -1.97316        2.19925
C          2.96139       -3.14730        3.12536
O          2.32698       -3.11422        1.84296
H          2.75140       -0.85390       -0.27443
H          2.87432        0.80138       -0.62155
H          3.87302        0.48053        1.43650
H          2.41196        1.37458        1.80171
H          2.70815       -0.33779        3.46888
H          1.31172       -0.83217        2.52777
H          4.05011       -1.83935        1.66409
H          3.83877       -3.76454        3.26232
H          2.29188       -3.09648        3.97215