20

O          1.28466        0.42999       -0.64353
O          2.64498        0.26357       -0.32513
C          2.78099       -1.02307        0.27875
C          1.91753       -1.15565        1.53937
C          1.34065       -2.56542        1.81447
O          0.45290       -3.15262        0.83765
O          0.48986       -2.40247       -0.39774
C          0.46245       -2.47019        3.08132
C          2.49793       -3.55725        2.01666
H          2.63207       -1.80647       -0.46914
H          3.83714       -1.11145        0.56114
H          2.56534       -0.88457        2.38884
H          1.11137       -0.41511        1.56042
H          0.32272       -3.14633       -0.99552
H          0.82866       -1.71867        3.78825
H         -0.57248       -2.21022        2.82155
H          0.41058       -3.42909        3.60792
H          3.47557       -3.07333        1.92037
H          2.48413       -4.00255        3.01591
H          2.46454       -4.36818        1.28166