18

O          0.98446       -0.04011       -0.02080
C          2.30801       -0.04916        0.01363
C          2.80484        1.40251       -0.23635
C          2.41725        2.40366        0.86754
C          2.92943        2.00618        2.25479
C          4.43239        1.99984        2.31798
C          5.14415        2.77700        3.14547
H          2.80965       -0.39170        0.93173
H          2.83560       -0.65894       -0.73468
H          3.89955        1.37888       -0.32599
H          2.45081        1.77578       -1.20707
H          2.79912        3.39846        0.60290
H          1.32546        2.50325        0.90702
H          2.51844        2.70436        2.99320
H          2.55572        1.01788        2.54289
H          4.94995        1.32547        1.63962
H          6.22581        2.74749        3.13208
H          4.64534        3.44654        3.83467