14

O          0.98767       -0.21585        0.10184
C          2.29804       -0.01930        0.07041
C          2.87944       -1.42770        0.07684
C          3.65663       -1.98775       -0.87641
C          2.70873        0.77796       -1.20685
O          2.37364        2.17341       -1.18931
O          1.03529        2.30061       -1.75446
H          2.77643        0.50817        0.90967
H          2.60310       -2.03978        0.93128
H          3.98019       -3.01305       -0.79268
H          3.94058       -1.44158       -1.76408
H          3.80744        0.77911       -1.25226
H          2.36596        0.30848       -2.13969
H          0.71984        2.93127       -1.08577