23

O          1.33104       -0.61242       -0.27427
O          2.60954       -0.03324       -0.18678
C          2.91928        0.06042        1.20143
C          2.35306        1.34599        1.80495
C          0.82124        1.36022        1.91175
C          0.26321        0.23863        2.79937
C          0.76134        0.29799        4.25056
O          0.22210        1.44415        4.92146
O          1.10050        2.56710        4.62338
C          0.29449       -0.92945        5.02325
H          2.60194       -0.83979        1.74152
H          4.01112        0.08870        1.27971
H          2.80015        1.49872        2.79312
H          2.66373        2.20075        1.19351
H          0.48945        2.33378        2.28702
H          0.37515        1.29011        0.91390
H         -0.83149        0.30337        2.78233
H          0.51675       -0.73510        2.36405
H          1.85558        0.31269        4.30290
H          0.38655        3.23024        4.52727
H          0.67524       -1.85216        4.57407
H          0.64666       -0.87719        6.05906
H         -0.79855       -0.97652        5.05950