15

O          1.15193       -0.43819        0.07173
O          2.42128        0.12447       -0.15270
C          2.74045        0.87346        1.01930
C          2.24358        2.32318        0.90533
C          0.71565        2.41476        0.90183
C          2.79784        3.16447        2.05463
H          2.36551        0.37730        1.92169
H          3.83605        0.87308        1.09234
H          2.60202        2.73997       -0.04297
H          0.29109        1.95044        1.79764
H          0.38988        3.46034        0.87558
H          0.28621        1.92556        0.02263
H          3.89287        3.16259        2.04931
H          2.46596        4.20485        1.96705
H          2.46051        2.78243        3.02345