16

O          1.00703        0.00003       -0.07852
C          2.32510        0.01438       -0.17588
C          2.86832        1.12069        0.76543
C          2.43013        1.04365        2.23188
C          2.97103       -0.15198        2.99454
O          3.70048        0.01319        3.98489
C          2.57244       -1.54807        2.58854
H          2.88430       -0.89356        0.06543
H          2.77195        0.22474       -1.15826
H          3.96628        1.09670        0.72766
H          2.57795        2.10371        0.36507
H          2.80749        1.94292        2.74007
H          1.34152        1.07969        2.34627
H          1.48925       -1.61883        2.46833
H          3.09248       -1.86172        1.68618
H          2.88314       -2.25488        3.36221