20

O          1.26693        0.41898        0.20000
O          2.58642       -0.06880        0.20187
C          2.92372       -0.34052       -1.15724
C          2.37564       -1.69827       -1.60541
C          0.85099       -1.73512       -1.79042
C          0.30825       -0.65331       -2.73823
O          0.69185       -0.93940       -4.09130
O          2.05395       -0.45026       -4.26049
C         -1.21467       -0.62452       -2.69722
H          2.62273        0.49020       -1.80429
H          4.01694       -0.37231       -1.20800
H          2.86136       -1.99974       -2.53986
H          2.64751       -2.45644       -0.86073
H          0.58240       -2.72610       -2.17870
H          0.36985       -1.65396       -0.80882
H          0.64908        0.34989       -2.46552
H          2.30426       -1.09128       -4.95594
H         -1.57883       -0.40161       -1.68918
H         -1.59535        0.14342       -3.37934
H         -1.63507       -1.58044       -3.02450