25

O          1.04477        0.23386        0.16571
C          2.37067        0.18245        0.13515
C          2.80343       -1.25918        0.52621
C          2.38679       -2.35673       -0.47107
C          2.96387       -2.15011       -1.87248
C          4.49915       -2.10825       -1.92550
O          5.04207       -3.42036       -1.66879
O          5.17960       -3.56057       -0.22446
C          4.99974       -1.71583       -3.32468
C          4.55383       -0.33168       -3.77268
H          2.88399        0.41631       -0.80867
H          2.92029        0.83592        0.82812
H          3.89674       -1.26086        0.62814
H          2.43089       -1.52124        1.52497
H          2.67917       -3.33891       -0.08603
H          1.29297       -2.39023       -0.54759
H          2.59894       -2.95440       -2.52252
H          2.53841       -1.22335       -2.26687
H          4.92112       -1.38848       -1.21516
H          4.80451       -4.45834       -0.17133
H          6.09690       -1.75400       -3.32833
H          4.67662       -2.46654       -4.05619
H          4.88117        0.43393       -3.06236
H          4.97861       -0.09656       -4.75279
H          3.46718       -0.26437       -3.87350