14

O          0.98070       -0.05621       -0.00009
C          2.30344        0.04378       -0.01984
C          2.83167       -0.64344       -1.32269
C          2.36755        0.06290       -2.60563
C          4.36780       -0.67424       -1.30971
H          2.75232        1.04945       -0.00869
H          2.84831       -0.44040        0.80622
H          2.48404       -1.68627       -1.35615
H          2.71145        1.10246       -2.62888
H          2.76513       -0.44546       -3.49073
H          1.27665        0.06251       -2.69589
H          4.74413       -1.20618       -0.42992
H          4.75408       -1.18537       -2.19829
H          4.78375        0.33934       -1.29758