16

O          1.06401        0.06395        0.00431
C          2.39245        0.01143       -0.00992
C          2.89587       -1.49154       -0.03970
O          2.64523       -2.13774       -1.31630
O          1.31264       -2.72395       -1.31136
C          4.43953       -1.46463       -0.00137
C          2.42884       -2.31916        1.17469
H          2.89443        0.50147       -0.85975
H          2.92539        0.47071        0.84323
H          0.85704       -1.90398       -1.61090
H          4.82562       -1.00400        0.91270
H          4.84116       -2.48235       -0.07704
H          4.83590       -0.91600       -0.86442
H          2.78698       -1.87779        2.11263
H          1.33836       -2.39088        1.23809
H          2.80513       -3.34575        1.11280