20

O          1.87544        1.08914       -0.13554
O          2.58184       -0.08395        0.17919
C          2.83545       -0.75157       -1.05211
C          2.18311       -2.13613       -1.06365
C          0.63447       -2.19584       -1.07360
O          0.10616       -1.66585       -2.30256
O          0.22833       -0.22088       -2.27101
C          0.20774       -3.67663       -1.09206
C         -0.02816       -1.58379        0.16961
H          2.56936       -0.15294       -1.92998
H          3.92246       -0.88418       -1.10970
H          2.55873       -2.66042       -1.95274
H          2.54764       -2.68727       -0.18644
H          0.17592       -0.07557       -3.22524
H          0.55911       -4.21054       -0.20306
H         -0.88630       -3.75753       -1.12882
H          0.58141       -4.18971       -1.98470
H          0.40557       -1.99846        1.08688
H          0.04868       -0.49783        0.21193
H         -1.10381       -1.79378        0.17784