9

C         -0.02649        0.86608       -0.07004
C         -0.73543       -0.45869       -0.07005
C          0.76105       -0.40744        0.05503
H         -0.11230        1.49533        0.80802
H          0.02356        1.40986       -1.00633
H         -1.30658       -0.73637        0.80802
H         -1.16010       -0.80199       -1.00633
H          1.35538       -0.72549       -0.79331
H          1.19774       -0.64113        1.01929