16

C          0.71720        1.25167       -0.22530
C         -0.73832        1.27054        0.22849
C         -1.43296       -0.00214       -0.24133
C         -0.66229       -1.22074        0.24947
O          0.68683       -1.18421       -0.21974
C          1.39642       -0.03195        0.23786
H          1.25022        2.12830        0.15670
H          0.74232        1.29794       -1.32088
H         -0.78073        1.32935        1.32293
H         -1.25085        2.15458       -0.16526
H         -1.45513       -0.00619       -1.33785
H         -2.46832       -0.02990        0.11420
H         -1.12506       -2.13503       -0.13570
H         -0.66786       -1.28118        1.34387
H          2.41086       -0.08309       -0.17193
H          1.47840       -0.06493        1.33012