18

C          0.58549        0.66444        0.35690
C          0.55238       -0.13081        1.36083
C          1.09788       -0.89060        2.49164
C          1.97705       -2.06432        2.02325
C          3.04598       -1.76947        0.96550
C          4.34888       -1.75812        1.29155
C          2.67355       -1.60725       -0.49186
H          0.11493        0.41459       -0.59599
H          1.55695        1.15964        0.25780
H          1.72874       -0.17906        3.03760
H          0.32572       -1.22385        3.19300
H          2.47431       -2.43782        2.93095
H          1.34717       -2.89152        1.67465
H          5.10961       -1.56706        0.53991
H          4.69189       -1.96199        2.29902
H          2.11884       -2.47390       -0.85683
H          2.08195       -0.72983       -0.71588
H          3.56059       -1.46717       -1.11959