12

C          1.51541        0.23737       -0.21680
C          0.50528        0.78173       -0.91226
C         -0.89433        0.42468       -0.80089
H         -1.47222        0.62098       -1.70866
C         -1.66009       -0.21591        0.24991
C         -1.16526       -0.99817        1.22272
H          1.37948       -0.49545        0.55564
H          2.54931        0.48636       -0.40254
H          0.75718        1.49526       -1.69466
H         -2.74180       -0.11658        0.18299
H         -1.79626       -1.51535        1.92952
H         -0.11750       -1.18571        1.36000