7

C          1.04809       -0.00537        0.07304
C          0.24292        0.99401        0.45218
C         -1.15950        0.79205        0.37556
O         -2.29682        0.51264        0.26956
H          0.61256       -0.93804       -0.28079
H          2.12773        0.06922        0.10134
H          0.63199        1.94196        0.81181