13

C          1.35464        0.21654       -0.34488
C          0.33044        0.63363       -1.10018
C         -1.07467        0.30240       -0.91753
H         -1.65440        0.33655       -1.84541
C         -1.82033       -0.18467        0.23640
C         -1.23827       -0.78537        1.29305
O         -1.81378       -1.37732        2.37246
H          1.25750       -0.38320        0.53994
H          2.38651        0.43550       -0.57834
H          0.57363        1.21082       -1.99203
H         -2.90219       -0.11665        0.17121
H         -0.18769       -0.90739        1.42575
H         -2.77576       -1.37875        2.28032