14

C          1.15920       -0.03749       -0.02826
C          0.36785        1.03024       -0.23972
C         -1.06351        0.91367       -0.41695
C         -1.65564        1.65816       -1.57360
C         -1.75941       -0.35238       -0.02066
H          0.75178       -1.03719        0.06246
H          2.23410        0.05756        0.01683
H          0.81786        2.01198       -0.36160
H         -1.38691        1.13086       -2.49539
H         -2.74783        1.68739       -1.50770
H         -1.29112        2.68719       -1.64230
H         -1.51927       -1.12512       -0.75867
H         -1.43915       -0.69673        0.96848
H         -2.84482       -0.22937        0.00484