22

C          1.10558       -0.04916       -0.06433
C          0.40839        0.82501        0.67632
C         -1.11612        0.85348        0.75924
C         -1.65419        0.51244        2.20417
C         -1.23238        1.58358        3.21180
C         -2.01763        2.42451        3.90477
O         -2.97428        0.39421        2.16154
C         -1.12160       -0.86176        2.66817
C         -1.60376        2.22541        0.25281
H          0.59305       -0.79004       -0.66703
H          2.18790       -0.05256       -0.04544
H          0.94172        1.53859        1.29705
H         -1.50423        0.09962        0.05570
H         -0.15853        1.69080        3.34467
H         -1.60494        3.17475        4.56207
H         -3.09485        2.36112        3.79235
H         -1.43705       -1.66694        1.98959
H         -0.02681       -0.88396        2.70929
H         -1.47885       -1.12179        3.67377
H         -1.24111        2.42176       -0.76124
H         -2.69788        2.26792        0.22103
H         -1.25521        3.04285        0.89341