13

C          0.93396       -0.06147       -0.06291
C          0.19663       -0.86119       -0.84554
C         -1.25675       -0.89309       -0.87677
C         -1.90532       -1.73420       -1.69991
C         -2.02659        0.03133        0.02790
H          0.49154        0.64606        0.62950
H          2.01768       -0.09595       -0.09666
H          0.72171       -1.54356       -1.51333
H         -2.99076       -1.76289       -1.72798
H         -1.38587       -2.41509       -2.36624
H         -1.78801       -0.17009        1.07799
H         -1.78801        1.07682       -0.19615
H         -3.10902       -0.08687       -0.08777