12

C          0.93173       -0.05600        0.01040
C          0.19297        0.88306       -0.60012
C         -1.26461        0.91690       -0.60219
C         -1.90165        1.86727       -1.31017
C         -2.09533        0.01783        0.17257
H         -1.74280       -0.29146        1.14969
H         -3.14988       -0.09153       -0.04971
H          0.48339       -0.88006        0.55411
H          2.01524       -0.02290       -0.02196
H          0.71413        1.67188       -1.14008
H         -2.98607        1.93269       -1.32024
H         -1.37254        2.62248       -1.88073