23

C          1.07296       -0.01092        0.11355
C          0.36354        0.83480       -0.64707
C         -1.13380        0.90290       -0.60701
C         -1.60695        2.29170       -0.16232
C         -1.22627        3.40008       -1.15307
C         -1.73996        3.15127       -2.57953
O         -3.17059        3.23779       -2.62858
O         -3.69767        1.95862       -2.17029
C         -1.19147        4.21410       -3.52205
H          0.57557       -0.70823        0.77637
H          2.15484       -0.00585        0.08195
H          0.89341        1.51455       -1.30903
H         -1.52095        0.63711       -1.59588
H         -1.54595        0.15142        0.07536
H         -2.69212        2.28393       -0.01209
H         -1.18322        2.52804        0.82223
H         -1.62298        4.35057       -0.77623
H         -0.13462        3.50946       -1.16764
H         -1.41010        2.18359       -2.97348
H         -4.54040        2.30909       -1.82694
H         -0.09673        4.20723       -3.53343
H         -1.54972        4.03465       -4.54109
H         -1.53808        5.20985       -3.22888