26

C          0.79097       -0.50859        0.02474
C          0.26363       -0.21627       -1.34559
H         -0.77086       -0.48904       -1.52814
C          0.85411        0.84033       -2.25379
C          0.52596        2.27917       -1.80720
C          1.01358        2.68178       -0.39084
O          2.43903        2.80662       -0.26168
O          3.02457        1.48424       -0.42650
C          0.39259        3.98419        0.12338
C         -1.12898        3.92047        0.19746
O          0.87911        3.24910       -2.81129
O          2.32933        3.25722       -2.93020
H          0.48458       -1.49865        0.36240
H          0.36707        0.17745        0.76097
H          1.87945       -0.46725        0.07439
H          1.92407        0.68840       -2.42430
H          0.41345        0.69650       -3.25266
H         -0.56990        2.30294       -1.80218
H          0.68456        1.95334        0.34122
H          3.86851        1.76927       -0.78253
H          0.77845        4.16290        1.13651
H          0.72381        4.83425       -0.48100
H         -1.45526        3.07162        0.81011
H         -1.52910        4.83412        0.64307
H         -1.58285        3.81586       -0.79173
H          2.40588        4.17990       -3.23236