9

C          0.95664        0.15812       -0.07085
C          0.70697       -0.03037        1.34545
C          0.82078       -0.65638        2.47189
O          1.58235       -1.78623        2.39510
H          0.49834        1.03738       -0.52079
H          0.60478       -0.74022       -0.58975
H          2.04222        0.20294       -0.21083
H          0.41463       -0.42691        3.44143
H          1.88267       -1.87151        1.46810