16

C          1.06198        0.34945       -0.01455
C          0.49596        0.38438        1.36286
H         -0.53783        0.70594        1.45433
C          1.00295       -0.51275        2.44950
C          0.54344       -1.97051        2.28554
O          1.19200       -2.58398        1.15982
O          0.16736       -2.75673        0.13800
O          2.42098       -0.41506        2.51400
H          0.82325        1.26952       -0.55205
H          0.61184       -0.46511       -0.58034
H          2.14692        0.21973       -0.01422
H          0.62138       -0.13371        3.40489
H          0.85172       -2.54980        3.16244
H         -0.54810       -2.03371        2.20636
H          0.73099       -2.49308       -0.62166
H          2.76915       -0.92912        1.76539