23

C          1.01996       -0.14359        0.57050
C          0.49655       -1.33839       -0.13700
H         -0.54177       -1.60006        0.05181
C          1.04905       -1.77968       -1.46485
C          0.54002       -0.95104       -2.68047
O          1.05897        0.39265       -2.69682
O          0.04654        1.26820       -2.13794
C          0.99550       -1.54124       -4.01990
C          0.48509       -2.94394       -4.28963
O          2.47047       -1.99042       -1.41488
O          3.14114       -0.70516       -1.55927
H          0.68958       -0.13903        1.61088
H          0.62033        0.75884        0.11527
H          2.10916       -0.09694        0.55835
H          0.64816       -2.79439       -1.58253
H         -0.55841       -0.91685       -2.65936
H          0.66970        1.78951       -1.59678
H          0.65457       -0.87638       -4.82390
H          2.09068       -1.52805       -4.07689
H         -0.60834       -2.97250       -4.26291
H          0.81427       -3.27311       -5.27948
H          0.87050       -3.66403       -3.56277
H          4.00414       -0.99173       -1.23938