9

C          1.05904        0.04691        0.01037
C          0.48058        1.36242        0.37545
C          0.85163        2.64497       -0.18384
O         -0.33196        1.94364       -0.57118
H          0.74441       -0.27310       -0.98834
H          0.71788       -0.70919        0.72481
H          2.15265        0.06805        0.03836
H          0.72774        3.50999        0.45316
H          1.67985        2.67842       -0.87683