12

C          0.88244       -0.00003        0.00497
C          0.38921       -1.24298       -0.66047
H         -0.61730       -1.58229       -0.42643
C          0.93104       -1.64412       -1.93909
C          1.73902       -0.84389       -2.65420
O          2.22833       -1.10786       -3.89731
H          0.48580        0.09420        1.01782
H          0.55926        0.87167       -0.57306
H          1.97635        0.00206        0.07067
H          0.60557       -2.60507       -2.32533
H          2.07462        0.12947       -2.32174
H          1.88165       -1.96412       -4.19621