26

C          0.89967        0.33935        0.22152
C          0.32006       -0.71647        1.10520
H         -0.71247       -0.58921        1.41659
C          0.84545       -2.12869        1.10687
C          0.38700       -2.91229       -0.13886
C          0.92339       -2.35485       -1.47321
C          2.44599       -2.20645       -1.57797
C          3.19426       -3.50967       -1.80455
O          2.77128       -4.18152       -2.99135
O          1.57251       -4.94039       -2.66028
O          0.53236       -4.33693       -0.04525
O          1.70504       -4.65032        0.75309
H          0.68639        1.33473        0.61235
H          0.43919        0.31313       -0.76817
H          1.98157        0.22997        0.11223
H          1.93601       -2.13663        1.21966
H          0.47113       -2.63860        2.00484
H         -0.70253       -2.79096       -0.19139
H          0.52677       -2.92593       -2.31284
H          0.47903       -1.37615       -1.65106
H          2.66343       -1.53141       -2.41530
H          2.85991       -1.71351       -0.69167
H          4.25788       -3.28352       -1.93319
H          3.15355       -4.16618       -0.94163
H          1.05016       -4.65599       -3.44519
H          2.04136       -5.35079        0.15935