15

C          1.06307       -0.28691       -0.16089
C          0.52064        0.50497       -1.30019
H         -0.51089        0.32175       -1.59041
C          1.07638        1.87446       -1.55835
C          0.59434        2.88326       -0.51955
C          1.12263        2.65842        0.88111
O          1.99872        3.33356        1.39994
H          0.82885       -1.34815       -0.24182
H          0.57758        0.04723        0.75399
H          2.14494       -0.15269       -0.06500
H          2.17114        1.84161       -1.61219
H          0.73126        2.19904       -2.55066
H          0.90474        3.88814       -0.81818
H         -0.49991        2.87361       -0.46597
H          0.65720        1.84061        1.45425