24

C          1.06280       -0.06917        0.33560
C          0.49025       -1.31396       -0.25754
H         -0.53383       -1.56215        0.00495
C          1.01871       -1.89815       -1.54337
C          0.58282       -1.08381       -2.78112
C          1.14346        0.34977       -2.85183
C          2.65664        0.48944       -2.64379
C          3.43844        0.10672       -3.88157
O          0.74160       -1.73756       -4.05321
O          1.85258       -2.66734       -3.97268
H          0.81615        0.00693        1.39605
H          0.62992        0.81454       -0.13710
H          2.14986       -0.03152        0.23375
H          2.10724       -2.01904       -1.49105
H          0.63500       -2.92324       -1.63659
H         -0.50763       -0.97568       -2.70211
H          0.86465        0.80824       -3.80717
H          0.63515        0.96350       -2.10380
H          2.88252        1.53134       -2.38776
H          3.01898       -0.10548       -1.80099
H          3.00676        0.56708       -4.77439
H          4.48359        0.40928       -3.79240
H          3.44701       -0.97184       -4.01032
H          2.28361       -2.38061       -4.80937