12

C          1.03549        0.06785       -0.07660
C          0.49604        1.03881        0.91194
H         -0.51380        1.41075        0.76754
C          0.98914        0.96174        2.31779
O          0.57439       -0.27095        2.91219
O         -0.88419       -0.22756        2.98054
H          0.66960        0.30325       -1.07939
H          0.70801       -0.94359        0.18080
H          2.12864        0.09475       -0.09108
H          2.08421        0.99257        2.33535
H          0.62286        1.80065        2.91776
H         -1.00856       -1.19153        3.07956