12

C          1.05291        0.05111        0.05379
C          0.46107        1.40176       -0.13404
C         -0.96330        1.52322       -0.28358
C         -1.72068        2.34158        0.46356
O          1.17107        2.46339        0.37809
H          0.69911       -0.65211       -0.70628
H          0.76399       -0.32688        1.03972
H          2.14464        0.08981        0.00674
H         -1.44233        0.83671       -0.97849
H         -2.79989        2.32847        0.37861
H         -1.28500        2.99180        1.21242
H          0.69352        3.30564        0.28981