12

C          1.07820       -0.01864        0.04015
C          0.51813       -1.38677       -0.15839
H         -0.50171       -1.57731        0.16431
C          1.06700       -2.19419       -1.29133
C          0.61711       -1.51164       -2.55848
O          1.38992       -1.00440       -3.37060
H          0.71489        0.41707        0.97333
H          0.75938        0.62486       -0.78537
H          2.17143       -0.04448        0.06438
H          2.16049       -2.23432       -1.25466
H          0.68042       -3.21707       -1.27626
H         -0.47465       -1.45563       -2.70670