24

C          0.92540        0.17440        0.51861
C          0.39316       -1.22405        0.47972
H         -0.64171       -1.34687        0.78077
C          0.95835       -2.30512       -0.40546
C          0.59593       -2.10346       -1.88263
C          1.14363       -0.81728       -2.52896
O          2.57004       -0.87526       -2.68491
O          3.15459       -0.71294       -1.35946
C          0.52102       -0.50633       -3.89352
C         -0.99943       -0.40239       -3.84550
H          0.63049        0.68173        1.43714
H          0.48962        0.77681       -0.28153
H          2.01374        0.21578        0.45392
H          2.03226       -2.44995       -0.25498
H          0.51109       -3.25754       -0.08517
H          0.94593       -2.96916       -2.45902
H         -0.49768       -2.11956       -1.92452
H          0.89954        0.06195       -1.94435
H          4.06291       -0.91844       -1.59239
H          0.92041        0.45951       -4.23338
H          0.84117       -1.24303       -4.63682
H         -1.31900        0.34638       -3.11139
H         -1.39476       -0.11266       -4.82207
H         -1.46531       -1.35551       -3.58103