17

C          0.93405       -0.16875        0.33864
C          0.36317       -1.38902       -0.30077
H         -0.65925       -1.65461       -0.04816
C          0.90600       -1.91794       -1.59366
C          0.47078       -1.07315       -2.79608
C          0.99947        0.36018       -2.82053
O          2.41029        0.41326       -2.68965
H          0.69905       -0.13852        1.40377
H          0.48745        0.72710       -0.09566
H          2.01962       -0.12069        0.21805
H          1.99621       -2.02117       -1.54633
H          0.52576       -2.93948       -1.73138
H          0.81572       -1.57900       -3.70520
H         -0.62510       -1.04726       -2.84014
H          0.73797        0.83853       -3.76862
H          0.53883        0.98227       -2.05175
H          2.66472       -0.07673       -1.88312