9

C          0.94019        0.00943       -0.04874
C          0.39708        0.99486       -1.01601
H         -0.58819        0.87404       -1.44635
C          0.97032        2.34707       -1.01419
O          1.77052        2.71138       -0.15725
H          0.56852       -0.99569       -0.26609
H          0.62661        0.28627        0.96096
H          2.03415       -0.01928       -0.08648
H          0.62462        3.01132       -1.81940