24

C          0.93282        0.42791       -0.10458
C          0.34268        0.73207        1.23123
H         -0.67962        1.09546        1.25395
C          0.84662        0.07626        2.48164
C          0.38264       -1.38285        2.58004
C          0.98765       -2.33280        1.53217
C          2.51655       -2.24263        1.40858
O          3.13451       -2.93447        2.49902
O          3.08659       -2.04010        3.64938
C          2.99948       -2.88147        0.11212
H          0.69375        1.21382       -0.82266
H          0.50415       -0.49094       -0.50854
H          2.01970        0.32252       -0.05690
H          1.93373        0.17850        2.56273
H          0.45318        0.62701        3.34572
H          0.60201       -1.76692        3.58217
H         -0.71124       -1.41316        2.48786
H          0.69905       -3.35772        1.79404
H          0.51021       -2.15089        0.56623
H          2.88476       -1.21225        1.38947
H          2.88450       -2.71878        4.30560
H          2.62014       -2.34075       -0.76212
H          4.09421       -2.87048        0.07054
H          2.68313       -3.92640        0.04506