22

C          1.02292       -0.07557        0.39356
C          0.43028       -1.19756       -0.39399
H         -0.58469       -1.48917       -0.16479
C          0.95370       -1.56247       -1.75352
C          0.49711       -0.57064       -2.82978
C          1.06579        0.84857       -2.69426
C          2.58833        0.90034       -2.56033
C          3.24216        0.51401       -3.87440
H          0.78515       -0.18712        1.45440
H          0.59120        0.87810        0.08351
H          2.10726       -0.02789        0.28848
H          2.03903       -1.68277       -1.73782
H          0.56183       -2.55628       -2.01162
H          0.77428       -0.97131       -3.81548
H         -0.59557       -0.51283       -2.82900
H          0.75614        1.43953       -3.56302
H          0.60058        1.36087       -1.84579
H          2.89870        1.90822       -2.27081
H          2.95737        0.23863       -1.76985
H          2.92282        1.20036       -4.66436
H          4.33096        0.55722       -3.79078
H          2.96739       -0.50150       -4.16941