11

C          0.94924        0.08373        0.09501
C          0.38721       -1.15831       -0.50330
H         -0.61077       -1.46968       -0.21456
C          0.93260       -1.62448       -1.80230
O          0.49483       -0.72801       -2.80606
H          0.58423        0.21355        1.11750
H          0.64061        0.95166       -0.49449
H          2.04213        0.04423        0.12348
H          2.02665       -1.64228       -1.79232
H          0.57314       -2.62872       -2.04328
H         -0.46700       -0.62840       -2.69698