17

C          1.02239       -0.07264        0.13663
C          0.47365       -0.72814       -1.08730
H         -0.54983       -1.09056       -1.05398
C          0.99997       -0.26425       -2.40821
C          0.54788        1.14393       -2.63403
C          1.38074        2.19726       -2.68681
C          0.90014        3.60439       -2.77928
H          0.66172       -0.57296        1.03761
H          0.69557        0.97145        0.17534
H          2.11599       -0.09673        0.13244
H          2.09348       -0.34777       -2.41964
H          0.62355       -0.90558       -3.21254
H         -0.52712        1.30504       -2.66217
H          2.45425        2.04280       -2.61948
H          1.27450        4.18155       -1.92785
H          1.26722        4.06004       -3.70200
H         -0.19298        3.66520       -2.77255