13

C          1.12395        0.10271       -0.03660
C          0.54662       -1.25283       -0.15155
C          1.35057       -2.48789       -0.08334
O          0.36159       -3.51311       -0.15510
O         -0.81577       -2.97564        0.55016
C         -0.81834       -1.56785        0.28890
H          0.92052        0.50999        0.95888
H          0.68514        0.77339       -0.78219
H          2.20654        0.08881       -0.18305
H          2.04098       -2.59468       -0.91797
H          1.88403       -2.56257        0.86803
H         -1.05458       -1.05898        1.22991
H         -1.57641       -1.32914       -0.46323