23

C          1.03500        0.15708       -0.33169
C          0.46259        1.41343        0.23513
H         -0.56042        1.65733       -0.03717
C          0.96883        2.00250        1.52722
C          0.50320        1.18199        2.75286
C          1.07971       -0.24153        2.85430
C          2.59149       -0.34606        2.67693
O          3.24349       -0.10788        3.92085
O          3.90353        1.17964        3.80021
O          0.60018        1.83355        4.02874
O          1.65869        2.82018        3.97822
H          0.79213        0.05822       -1.39098
H          0.59503       -0.71462        0.15544
H          2.12114        0.11817       -0.21869
H          2.05732        2.12726        1.49473
H          0.58282        3.02781        1.60979
H         -0.58112        1.05981        2.63145
H          0.79781       -0.67712        3.81893
H          0.59313       -0.87082        2.10567
H          2.84640       -1.36899        2.38079
H          2.99564        0.29488        1.88639
H          3.66348        1.49737        4.68129
H          1.99565        2.64826        4.86899