15

C          0.92666       -0.05104        0.02700
C          0.38351       -1.27744        0.66850
H         -0.60919       -1.28087        1.09959
C          0.97167       -2.57040        0.25850
O          1.75508       -2.60557       -0.69300
C          0.56610       -3.82285        0.99604
C          1.08678       -3.84258        2.42024
H          0.55599        0.85129        0.52086
H          0.61288       -0.02816       -1.01985
H          2.02105       -0.03335        0.06963
H         -0.52328       -3.92589        0.96896
H          0.98447       -4.67614        0.44880
H          0.65449       -3.03220        3.01521
H          0.83348       -4.79177        2.90328
H          2.17593       -3.72913        2.44120