21

C          0.99112        0.37115       -0.15757
C          0.37449        0.85723        1.10562
H         -0.66306        1.17631        1.07809
C          0.92164        0.39106        2.42348
C          0.47453       -1.04044        2.77063
O          1.11665       -1.96842        1.87374
O          0.07619       -2.50687        1.00947
C          0.92618       -1.46896        4.17071
C          0.40715       -0.58883        5.29262
H          0.79150        1.06150       -0.97873
H          0.54954       -0.58409       -0.43731
H          2.07219        0.24377       -0.05185
H          2.01600        0.45954        2.41343
H          0.56357        1.10084        3.17743
H         -0.61801       -1.12169        2.69999
H          0.61760       -2.50063        0.19021
H          0.59394       -2.50146        4.34065
H          2.02204       -1.50494        4.20707
H         -0.68609       -0.55115        5.28711
H          0.73476       -0.98443        6.25853
H          0.79161        0.43199        5.21603