26

C          0.96686        0.17290       -0.30010
C          0.51916        1.05143        0.82186
H         -0.51097        1.39177        0.73416
C          1.02705        0.97888        2.24682
C          0.57293       -0.29257        2.97720
C          1.11037       -1.60336        2.38734
O          2.52370       -1.69528        2.59590
O          3.13628       -1.71720        1.27327
C          0.46285       -2.86042        2.96548
C         -1.05306       -2.86249        2.83171
O          2.40381        1.24559        2.54245
O          3.18816        1.30449        1.32872
H          0.68612        0.60563       -1.26209
H          0.45341       -0.79060       -0.26804
H          2.04337        0.00547       -0.30547
H          0.51418        1.80757        2.75602
H          0.89062       -0.22813        4.02606
H         -0.52170       -0.28194        2.96462
H          0.89226       -1.67065        1.32766
H          3.91226       -1.19063        1.50574
H          0.86079       -3.72295        2.41338
H          0.76694       -3.00206        4.00698
H         -1.35496       -2.73933        1.78525
H         -1.46433       -3.80544        3.19887
H         -1.51253       -2.05971        3.41463
H          3.95751        0.84307        1.69148