8

C          1.00879       -0.12429       -0.03195
C          0.44157        0.96475        0.79435
H         -0.57163        1.32793        0.71010
O          1.05797        1.25404        1.97866
H          0.65141       -0.04533       -1.06277
H          0.69707       -1.09211        0.36940
H          2.10184       -0.08241       -0.04471
H          0.57048        1.91558        2.50392