21

C          1.04529       -0.01716       -0.41664
C          0.45778        1.35329       -0.38517
H         -0.56396        1.46687       -0.73310
C          0.96412        2.40155        0.55913
C          0.49641        2.13940        1.99628
C          1.10582        0.89851        2.66733
C          2.62799        0.80506        2.56423
O          3.25730        1.69948        3.48079
O          3.19560        3.02837        2.88916
H          0.80842       -0.51958       -1.35575
H          0.61264       -0.63272        0.37396
H          2.13178        0.00169       -0.29886
H          2.05214        2.49961        0.48334
H          0.57336        3.37566        0.23712
H          0.71082        3.01938        2.61240
H         -0.59699        2.03804        2.00082
H          0.81091        0.89503        3.72242
H          0.65252       -0.00296        2.24880
H          2.94215       -0.20685        2.83711
H          3.01858        0.97142        1.55470
H          2.99669        3.49993        3.70802