8

C          0.92483        0.07073       -0.04005
C         -0.27693        0.07073       -0.04005
C         -1.81636        0.07073       -0.04005
C         -3.01870        0.07073       -0.04005
C         -4.55813        0.07073       -0.04005
C         -5.75989        0.07073       -0.04005
H          1.99132        0.07073       -0.04005
H         -6.82637        0.07073       -0.04005