13

C          1.01022       -0.00047        0.13294
C          0.54142        0.29085       -1.28396
C          1.29781       -0.48203       -2.30050
H          1.63826       -1.48450       -2.08970
H          1.45212       -0.05124       -3.28537
C         -0.98097        0.27912       -1.49062
O         -0.87586        1.60323       -2.06553
O          0.50435        1.72144       -1.54532
H          0.72191       -1.01478        0.43169
H          0.57459        0.69457        0.85943
H          2.10032        0.07440        0.21712
H         -1.37585       -0.45555       -2.19786
H         -1.59547        0.29901       -0.58663