14

C          1.05802        0.04756        0.13844
C          0.62416        0.39424       -1.27264
O          1.53380       -0.23529       -2.21144
C         -0.88332        0.21068       -1.56883
O         -0.90812        1.49217       -2.26437
C          0.29393        1.88452       -1.53617
H          0.75175       -0.97148        0.39693
H          0.62276        0.72660        0.87878
H          2.14744        0.10419        0.23686
H          1.22310        0.05678       -3.09056
H         -1.13888       -0.61956       -2.23291
H         -1.55727        0.21788       -0.70578
H          0.03552        2.49434       -0.66386
H          0.99727        2.42695       -2.17284