16

C          0.97828        0.05248        0.10819
C          0.61582       -0.94499       -0.98224
C          0.87820       -0.36397       -2.36831
C          1.08372       -2.39055       -0.70046
C         -0.33520       -2.76175       -1.12816
O         -0.77438       -1.39237       -0.88289
H          0.60941       -0.25818        1.09052
H          0.56558        1.04284       -0.10954
H          2.06742        0.15608        0.17291
H          0.32917        0.57572       -2.49804
H          1.94268       -0.15355       -2.50447
H          0.55966       -1.04052       -3.16887
H          1.89442       -2.77963       -1.32181
H          1.28727       -2.61458        0.35238
H         -0.84818       -3.49285       -0.49507
H         -0.45592       -3.03693       -2.18117