24

C          0.97337        0.10667        0.02257
C          0.35925        1.26688       -0.72084
C         -1.01228        1.75508       -0.21154
C         -0.42637        3.12987       -0.56514
O          0.92157        2.57691       -0.34862
C         -0.74067        4.31809        0.32692
C         -0.04079        5.59339       -0.16228
C         -0.31006        5.96430       -1.62403
O         -1.67916        6.31297       -1.84400
O         -2.41802        5.06918       -2.00903
H          0.60495       -0.83481       -0.40057
H          0.71144        0.11829        1.08438
H          2.06326        0.10701       -0.06644
H          0.43349        1.13684       -1.81020
H         -1.87974        1.44370       -0.79430
H         -1.19137        1.59753        0.85654
H         -0.57550        3.34053       -1.63028
H         -1.82331        4.48703        0.34880
H         -0.44803        4.11881        1.36497
H         -0.37324        6.42468        0.47263
H          1.04085        5.48828       -0.01829
H          0.27832        6.85438       -1.87263
H          0.01362        5.19118       -2.32859
H         -3.27545        5.41927       -1.69399