16

C          1.00510        0.02824        0.09352
C          0.49401        0.43296       -1.27908
C         -0.93116       -0.00792       -1.54791
O         -1.39637        0.85898       -2.58577
C         -0.79433        2.14057       -2.37035
C          0.42264        1.93533       -1.48405
H          0.72426       -1.00235        0.33320
H          0.60582        0.67668        0.88012
H          2.09743        0.09904        0.12844
H          1.14213        0.00038       -2.05080
H         -0.98892       -1.04671       -1.88910
H         -1.58120        0.11405       -0.67576
H         -1.53063        2.78554       -1.87702
H         -0.53947        2.58545       -3.33540
H          0.29269        2.48252       -0.54469
H          1.33306        2.32471       -1.95396