13

C          1.13573        0.02742        0.06538
C          0.60657       -1.22870       -0.59069
C          1.19934       -2.57633       -0.14811
O         -0.13525       -3.15405       -0.08521
C         -0.69399       -1.81205       -0.01314
H          0.86938        0.07882        1.12470
H          0.72484        0.91558       -0.42761
H          2.22646        0.07727       -0.01236
H          0.58425       -1.13606       -1.68267
H          1.83002       -3.07490       -0.89040
H          1.68237       -2.60140        0.83229
H         -0.92769       -1.55135        1.02362
H         -1.58320       -1.69393       -0.63754