13

C          0.81803       -0.08559        0.01060
C         -0.05095        0.89364       -0.76768
C         -0.24957        2.13496        0.04046
C         -0.32671        3.51480       -0.54560
O          0.88615        3.00649        0.02366
H          0.69973       -1.10491       -0.36596
H          0.56578       -0.07880        1.07704
H          1.87381        0.19303       -0.07629
H          0.41513        1.10782       -1.73809
H         -1.02775        0.44299       -0.97420
H         -0.76650        1.95574        0.97590
H         -0.83041        4.28796        0.02228
H         -0.39712        3.61606       -1.62064