18

C          1.22378       -0.37342       -0.30228
C          0.92968        0.63357        0.79884
C          0.21400       -0.09040        1.97343
O          0.82966        0.79453        2.94479
C          1.89621        1.05325        1.97375
C          2.24740        2.52894        1.95271
O          0.28842        1.77461        0.14805
O          1.32763        2.34553       -0.73787
H          0.71378       -0.06623       -1.22668
H          0.82442       -1.36767       -0.08472
H          2.29001       -0.43373       -0.52094
H         -0.87643       -0.07187        1.98803
H          0.55290       -1.11954        2.16909
H          2.74747        0.38744        2.16905
H          1.33778        3.13669        1.86605
H          2.77883        2.87468        2.83997
H          2.88080        2.72942        1.08404
H          0.86371        2.23017       -1.56930