19

C          0.81675       -0.01441       -0.34152
C          0.07457       -1.34558       -0.43850
C          0.99947       -2.44919        0.03616
C          0.48502       -3.87670        0.27082
C          1.12900       -3.71041        1.65764
O          1.23337       -2.28076        1.46263
C          2.52259       -4.26456        1.87248
H          0.48072        0.54321        0.53922
H          0.62599        0.60028       -1.22454
H          1.90129       -0.14530       -0.24696
H         -0.83073       -1.30718        0.17895
H         -0.24046       -1.53082       -1.47003
H          1.94660       -2.45284       -0.52212
H          0.93140       -4.65448       -0.35861
H         -0.60245       -3.98670        0.27160
H          0.43922       -3.94500        2.47998
H          2.89786       -3.96575        2.85609
H          2.53152       -5.35380        1.80829
H          3.22257       -3.87229        1.12322