18

C          0.90940       -0.03639       -0.11888
C          0.45424        0.69275       -1.37195
O         -0.96135        0.57084       -1.59278
C         -1.29957        1.61894       -2.51451
C         -0.39962        2.79881       -2.19731
C          0.74340        2.19568       -1.39807
O          0.86883        2.81210       -0.10817
O         -0.42184        2.70086        0.56443
H          0.55647       -1.07197       -0.11270
H          0.52216        0.42051        0.79582
H          2.00285       -0.03449       -0.06000
H          0.92709        0.21369       -2.24000
H         -2.36146        1.86685       -2.42980
H         -1.11272        1.25613       -3.53252
H         -0.94829        3.55945       -1.63147
H         -0.05334        3.28502       -3.11527
H          1.70255        2.36634       -1.89987
H         -0.08103        2.81538        1.47263