15

C          1.10848       -0.10438        0.01447
C          0.59007        0.24448        1.39153
O          1.22696       -0.51688        2.46272
C          1.19913        0.68299        3.29619
C          1.01787        1.56817        2.05472
O          2.15230        2.31577        1.53739
O          3.31174        1.43799        1.56391
H          0.76380        0.64192       -0.70944
H          0.72788       -1.07843       -0.30795
H          2.19951       -0.14140       -0.03187
H         -0.49601        0.08034        1.43281
H          2.11645        0.82485        3.87257
H          0.33948        0.66238        3.97687
H          0.17422        2.26128        2.15388
H          3.87227        1.98007        0.97380