12

C          1.03183        0.07041       -0.08731
C          0.34263        1.28972        0.41022
O          0.72717        2.52403       -0.20137
C         -0.62484        2.09923       -0.42217
C         -1.03922        1.74159       -1.77296
H         -1.79524        2.34127       -2.26644
H         -0.40567        1.13018       -2.40546
H          0.78767       -0.17107       -1.12397
H          0.72489       -0.78555        0.52214
H          2.11784        0.17088       -0.00764
H          0.28993        1.31481        1.49254
H         -1.41628        2.57373        0.15405