18

C          1.02599       -0.11662        0.02126
C          0.47513       -1.06139        1.03091
O         -0.62440       -1.82490        0.50634
C          0.49714       -2.57232        0.97223
C          1.29330       -3.33761       -0.03103
C          2.74062       -3.51220        0.43552
O          2.81044       -4.24868        1.66336
O          2.70122       -3.27040        2.74109
H          0.65904        0.89266        0.23987
H          0.70424       -0.36497       -0.99565
H          2.11831       -0.09101        0.04680
H          0.43735       -0.63439        2.02643
H          0.33370       -3.13926        1.88026
H          0.83419       -4.32655       -0.14816
H          1.27971       -2.85386       -1.01423
H          3.28897       -4.10055       -0.30823
H          3.25654       -2.55064        0.53732
H          2.19637       -3.84177        3.35188