18

C          1.05620        0.03896        0.00209
C          0.63509       -0.94403        1.07892
O          0.83164       -2.27814        0.61615
O          0.85464       -3.07063        1.84898
C          1.64284       -2.30228        2.76035
C          1.50392       -0.85666        2.31375
C          3.08649       -2.79265        2.71405
O          1.14506       -2.43694        4.08384
H          0.74301        1.05552        0.25734
H          0.63188       -0.23540       -0.96872
H          2.14508        0.03981       -0.12419
H         -0.42609       -0.81465        1.32395
H          2.48786       -0.43407        2.07893
H          1.05773       -0.20323        3.07067
H          3.72432       -2.19849        3.37749
H          3.15204       -3.83389        3.04858
H          3.49373       -2.75047        1.69806
H          1.74678       -1.94504        4.66871