18

C          0.75917       -0.18057       -0.00559
C          0.47170        0.76762       -1.14761
O         -0.94907        1.09852       -1.21824
C         -0.59419        2.43338       -1.67293
C          0.81759        2.27782       -1.07711
C          1.00702        2.94839        0.27127
O          2.36996        2.79306        0.68470
O          2.39224        1.72394        1.66958
H          0.29545       -1.15523       -0.18603
H          0.37677        0.19386        0.94825
H          1.83714       -0.34485        0.08793
H          0.78762        0.31122       -2.09663
H         -1.23616        3.20539       -1.24153
H         -0.63636        2.49084       -2.76697
H          1.60129        2.57905       -1.78269
H          0.84501        4.02745        0.17110
H          0.30709        2.59139        1.03608
H          3.14213        1.23464        1.28090