24

C          1.25845        0.06215        0.33708
C          0.44089       -1.04966        0.99324
O         -0.96050       -0.73084        0.94963
C         -1.63426       -0.95787       -0.29374
C         -1.22952        0.02882       -1.38762
C         -1.46835       -2.40690       -0.75059
C          0.00538       -2.79821       -0.82492
C          0.70907       -2.48655        0.49902
O          2.09742       -2.84396        0.49383
O          2.72479       -2.17851       -0.63804
H          0.79109        1.03804        0.50761
H          1.34604       -0.07127       -0.74193
H          2.27977        0.09323        0.72357
H          0.71600       -1.01786        2.05606
H         -2.69585       -0.77933       -0.08356
H         -1.95639        0.03009       -2.20325
H         -1.12598        1.04265       -0.99060
H         -0.27988       -0.24129       -1.85253
H         -1.95060       -2.55528       -1.72329
H         -1.97139       -3.06950       -0.03465
H          0.49024       -2.26691       -1.65055
H          0.10565       -3.86161       -1.06972
H          0.25109       -3.15780        1.24077
H          3.64472       -2.24807       -0.30410