18

C          1.01937       -0.01912       -0.08776
C          0.51219        0.69080       -1.29222
C         -0.31115        0.11969       -2.18836
C         -0.81691        0.80604       -3.43646
C         -0.33188        0.02840       -4.69145
C         -0.77141       -1.43591       -4.78093
O         -2.13567        0.77236       -3.37432
H          0.68238       -1.06036       -0.04897
H          0.67097        0.48729        0.81642
H          2.11346       -0.01898       -0.08982
H          0.81068        1.72232       -1.44459
H         -0.63272       -0.90619       -2.02832
H         -0.31519        1.78314       -3.50163
H         -0.65715        0.55017       -5.60237
H          0.76774        0.04958       -4.71075
H         -1.86204       -1.52251       -4.80133
H         -0.38198       -1.89546       -5.69351
H         -0.39581       -2.02123       -3.93649