10

C          0.93424       -0.06766        0.02790
C          0.40857        0.57863       -1.21049
C         -0.33948       -0.02085       -2.08861
C         -1.08226       -0.64670       -2.94921
H          0.60970       -1.11046        0.10601
H          0.57904        0.46891        0.91268
H          2.02814       -0.04851        0.02792
H          0.67871        1.61773       -1.37762
H         -2.06968       -0.27885       -3.20131
H         -0.74201       -1.57299       -3.39718