13

C          1.03825       -0.05989       -0.07856
C          0.53678        0.55657       -1.34275
C         -0.23227       -0.08893       -2.23431
C         -0.75199        0.52793       -3.48951
O         -0.27967       -0.22801       -4.59164
H          0.70321       -1.09546        0.03614
H          0.67932        0.51241        0.78232
H          2.13221       -0.05051       -0.06848
H          0.82172        1.59109       -1.52158
H         -0.52501       -1.12095       -2.05252
H         -1.84540        0.50703       -3.49496
H         -0.42545        1.56551       -3.61062
H          0.69148       -0.20159       -4.55011