12

C          1.05517       -0.04788       -0.02753
C          0.55326        0.10876        1.36599
C         -0.20423        1.14028        1.77715
C         -0.70492        1.32210        3.19433
O         -0.21318        2.48298        3.59013
H          0.72345        0.76573       -0.68034
H          0.69810       -0.99151       -0.45092
H          2.14935       -0.06143       -0.03014
H          0.84256       -0.64551        2.09160
H         -0.49637        1.91287        1.06904
H         -1.79821        1.20930        3.12047
H         -0.43567        0.41454        3.75719