23

C          1.05656       -0.08332        0.04099
C          0.54437       -0.53789        1.36357
C         -0.28341        0.22172        2.10098
C         -0.76902       -0.13974        3.46918
C         -0.26238        0.80768        4.57575
O         -0.81883        2.12780        4.41488
O         -0.01338        2.81418        3.41105
C         -0.73322        0.31807        5.95776
C         -0.23856       -1.07706        6.31073
H          0.71993        0.93113       -0.19831
H          0.70887       -0.75661       -0.74613
H          2.15033       -0.07922        0.05139
H          0.88516       -1.50056        1.73308
H         -0.61772        1.17490        1.70531
H         -1.86517       -0.13723        3.45693
H         -0.44771       -1.16442        3.67810
H          0.83451        0.86988        4.57493
H         -0.71147        3.42807        3.11741
H         -0.39740        1.02567        6.72677
H         -1.83010        0.34077        6.00027
H          0.85468       -1.11576        6.29329
H         -0.58200       -1.36542        7.30797
H         -0.62061       -1.83274        5.61878