21

C          0.97721        0.10443        0.04147
C          0.47082       -0.65346       -1.13939
C         -0.32818       -1.72393       -1.02282
C         -0.82406       -2.54459       -2.18025
C         -0.33107       -3.99423       -2.11471
C         -0.81624       -4.70380       -0.88478
C         -1.57946       -5.80465       -0.89396
C         -1.95460       -6.44499        0.33360
H         -1.91872       -7.52810        0.36088
H         -1.83893       -5.91067        1.27176
H          0.64118       -0.33465        0.98705
H          0.62446        1.13814       -0.00053
H          2.07109        0.10370        0.03970
H          0.78339       -0.31286       -2.12238
H         -0.63859       -2.04069       -0.02941
H         -1.92055       -2.52196       -2.18412
H         -0.49350       -2.10594       -3.12938
H         -0.65887       -4.52252       -3.01803
H          0.76617       -4.01758       -2.11645
H         -0.49191       -4.29580        0.06952
H         -1.89292       -6.26258       -1.82742