16

C          0.95433       -0.02071        0.07543
C          0.44301       -0.88498       -1.03119
C         -0.33039       -1.96189       -0.82703
C         -0.82057       -2.79199       -1.90054
C         -1.59413       -3.86920       -1.69703
C         -2.10530       -4.73328       -2.80381
H          0.62317       -0.37203        1.05789
H          0.59901        1.00576       -0.05631
H          2.04845       -0.01153        0.06848
H          0.73189       -0.59708       -2.03957
H         -0.61086       -2.23705        0.18746
H         -0.54004       -2.51672       -2.91500
H         -1.88312       -4.15726       -0.68873
H         -1.75001       -5.75977       -2.67212
H         -3.19943       -4.74249       -2.79691
H         -1.77407       -4.38185       -3.78619