22

C          1.04870       -0.03142       -0.08347
C          0.54316       -0.67446       -1.32507
C         -0.27253       -1.74168       -1.31316
C         -0.81621       -2.41422       -2.55622
C         -0.34547       -3.92193       -2.61959
C         -0.77233       -4.78964       -1.43426
C         -1.54392       -5.88701       -1.49553
C         -0.72728       -4.54254       -3.97620
O         -2.13345       -2.32572       -2.45266
H          0.71072       -0.55443        0.81734
H          0.69577        1.00215       -0.03047
H          2.14230       -0.03028       -0.08451
H          0.82455       -0.24311       -2.28008
H         -0.58562       -2.15803       -0.35895
H         -0.32146       -1.93564       -3.41616
H          0.75713       -3.90898       -2.59184
H         -0.46429       -4.42944       -0.45753
H         -1.87057       -6.38831       -0.59667
H         -1.92092       -6.24800       -2.44335
H         -0.32961       -3.95495       -4.80869
H         -0.32649       -5.55848       -4.06779
H         -1.81552       -4.59589       -4.09294