13

C          0.98594       -0.05785        0.04892
C          0.47566        1.34658        0.09265
C         -0.29738        1.87469       -0.86742
C         -0.79366        3.22823       -0.83284
C         -1.56453        3.73642       -1.80205
H          0.65386       -0.58836       -0.84947
H          0.63035       -0.61333        0.92191
H          2.08002       -0.05975        0.05916
H          0.76432        1.93901        0.95781
H         -0.57527        1.26553       -1.72523
H         -0.52666        3.85295        0.01665
H         -1.92177        4.75947       -1.74588
H         -1.85807        3.15343       -2.66935