21

C          1.04101       -0.24845       -0.09860
C          0.50594        0.92655       -0.81352
C         -0.26764        1.02358       -1.89616
C         -0.73387        2.30790       -2.40289
H         -1.73729        2.30652       -2.82810
C         -0.21802        3.63354       -1.86599
C         -0.71907        3.81159       -0.43815
C          0.04156        3.88513        0.66575
C          1.30763        3.77068       -2.06910
H          0.72783       -1.18738       -0.54751
H          0.69682       -0.19612        0.94004
H          2.13343       -0.17672       -0.09032
H          0.83306        1.81566       -0.29935
H         -0.62607        0.13334       -2.40986
H         -0.67672        4.43520       -2.46144
H         -1.79965        3.74793       -0.30900
H         -0.39955        3.83606        1.65502
H          1.12599        3.87174        0.61043
H          1.56433        3.77539       -3.13336
H          1.68453        4.69397       -1.61917
H          1.89054        2.95592       -1.62864