17

C          1.01490        0.06128        0.01141
C          0.50887       -0.83435        1.09352
C         -0.31797       -0.39128        2.05521
C         -0.79451       -1.19148        3.23216
C         -0.28275       -0.63611        4.56586
O         -0.84742        0.64518        4.86919
O         -0.04832        1.63676        4.15912
H          0.67627        1.09529        0.14118
H          0.66933       -0.29266       -0.96305
H          2.10918        0.06774        0.01852
H          0.85929       -1.86153        1.10081
H         -0.65619        0.64035        2.01298
H         -1.89052       -1.18233        3.22739
H         -0.47226       -2.23512        3.13654
H         -0.60994       -1.30766        5.36794
H          0.81271       -0.59794        4.60692
H         -0.74863        2.31162        4.09762