22

C          0.98538       -0.13672        0.11653
C          0.42097       -1.51840        0.01071
C         -0.41592       -2.06589        0.90562
C         -1.09078       -3.42406        0.73094
C         -1.40367       -4.31253        2.00242
C         -0.29514       -4.18304        3.06063
C         -0.45456       -3.78632        4.31962
C         -1.56783       -4.19964        5.23950
O         -2.56096       -3.86593        2.47270
H          0.67318        0.36940        1.03519
H          0.64447        0.46727       -0.73159
H          2.07908       -0.16235        0.09331
H          0.67869       -2.07731       -0.88681
H         -0.70661       -1.51512        1.79945
H         -2.03163       -3.22903        0.19465
H         -0.47866       -4.03107        0.05192
H         -1.33518       -5.35259        1.65777
H          0.67590       -3.98780        2.59007
H         -0.22544       -2.71862        4.42986
H         -2.17439       -5.00148        4.81105
H         -1.15714       -4.58147        6.17994
H         -2.20166       -3.34062        5.46624