11

C          1.02090        0.11835        0.03167
C          0.50671        1.27037        0.83536
C         -0.26511        2.22869        0.30388
C         -0.76577        3.36005        1.10819
O         -1.47080        4.22867        0.60742
H          0.68995        0.16782       -1.01104
H          0.66488       -0.82540        0.45551
H          2.11495        0.11188        0.03973
H          0.79114        1.29598        1.88509
H         -0.56212        2.22576       -0.73862
H         -0.47346        3.37898        2.17032