22

C          0.93950        0.01538        0.02425
C          0.32848       -1.08486       -0.81848
C         -0.52296       -2.00058       -0.29256
C         -1.30507       -3.14189       -0.96064
C         -1.42374       -4.58067       -0.23386
C          0.04155       -4.91675       -0.06200
C          0.25390       -5.99784        0.61825
C         -2.25486       -5.16890        1.20144
H          0.64379       -0.08322        1.07356
H          0.60066        1.00052       -0.31929
H          2.03520        0.01083       -0.01321
H          0.60104       -1.04681       -1.87633
H         -0.68388       -1.95126        0.77669
H         -2.27976       -2.79107       -1.30872
H         -0.74846       -3.32226       -1.91022
H         -1.74985       -5.25973       -1.04165
H          0.82909       -4.50772       -0.71580
H          0.01282       -5.71367        1.66636
H         -0.54784       -6.74002        0.36788
H         -3.33933       -5.36617        1.17126
H         -1.96373       -6.21973        1.48140
H         -1.96409       -4.67080        2.14232