22

C          0.94544       -0.05108        0.05265
C          0.41933       -0.74259        1.26057
C         -0.38464       -0.14206        2.15114
C         -0.86012       -0.78591        3.43480
C         -0.34328       -0.07186        4.72385
C         -0.87670        1.35906        4.80321
C         -1.67054        1.89984        5.74256
O         -0.73854       -0.78088        5.76993
C          1.19983       -0.04747        4.73946
H          0.61500        0.99168        0.00118
H          0.60297       -0.56569       -0.84855
H          2.03951       -0.05702        0.06812
H          0.73809       -1.76542        1.44181
H         -0.69153        0.88735        1.99704
H         -1.96018       -0.79506        3.41291
H         -0.55190       -1.84267        3.44252
H         -0.57134        2.01107        3.98838
H         -1.99719        2.92735        5.68733
H         -1.99445        1.29229        6.58085
H          1.62094       -1.06216        4.71840
H          1.60645        0.48606        3.87167
H          1.59716        0.45629        5.63025