23

C          1.08878        0.07124       -0.06141
C          0.60539       -1.23459       -0.59140
C         -0.19555       -2.04975        0.11236
C         -0.65342       -3.39498       -0.36711
C         -0.23306       -4.50907        0.59667
C         -0.76707       -4.34044        2.02846
O         -2.19731       -4.44865        2.06031
O         -2.73733       -3.14857        1.68542
C         -0.22071       -5.44712        2.92305
H          0.74325        0.25809        0.96123
H          0.73268        0.88493       -0.69819
H          2.18259        0.07920       -0.05368
H          0.93026       -1.52696       -1.58412
H         -0.53037       -1.72717        1.09569
H         -1.74009       -3.38827       -0.49958
H         -0.23795       -3.61180       -1.35844
H         -0.59079       -5.46223        0.18692
H          0.86390       -4.56150        0.61783
H         -0.45217       -3.38791        2.47027
H         -3.57246       -3.48500        1.31077
H          0.87373       -5.44546        2.93767
H         -0.58136       -5.31487        3.94875
H         -0.57006       -6.42855        2.58616