8

C          1.06247        0.04963       -0.00075
C          0.54305       -0.83272        1.08142
C         -0.20546       -0.41652        2.05756
O         -0.88197       -0.02054        2.93295
H          0.73221        1.08457        0.13571
H          0.70735       -0.29707       -0.97576
H          2.15644        0.03766       -0.00730
H          0.80708       -1.88405        1.04971