7

C          1.06988        0.02548       -0.04112
C          0.55422       -1.15026        0.72996
O         -0.15295       -1.04609        1.72701
H          0.72210        0.95394        0.41833
H          0.70374       -0.03055       -1.06888
H          2.16217        0.00573       -0.03825
H          0.85032       -2.14091        0.34583