10

C          1.07130        0.06351        0.02189
C          0.58098       -1.24311       -0.58068
C          1.14464       -2.43329        0.11939
H          0.63408       -3.38821        0.04052
H          2.16914       -2.43144        0.47123
H          0.71885        0.18066        1.05228
H          0.69616        0.91111       -0.56128
H          2.16492        0.11567        0.02749
H         -0.51212       -1.27854       -0.53099
H          0.86555       -1.28946       -1.63694