20

C          0.78600        0.16732        0.12570
C          0.31113       -0.74873       -0.99087
C          1.08767       -2.01471       -1.20184
H          0.57975       -2.77077       -1.79932
C          2.57832       -2.11139       -1.24070
C          3.21008       -1.43201       -2.46616
C          2.91594        0.05281       -2.65675
O          3.13404       -1.67517       -0.00924
H          0.62409       -0.29718        1.10209
H          0.23780        1.11314        0.09098
H          1.83962        0.43647        0.04942
H         -0.73436       -1.01366       -0.80180
H          0.27850       -0.19284       -1.93006
H          2.83198       -3.17714       -1.29391
H          4.29770       -1.54650       -2.40753
H          2.87121       -1.96066       -3.36615
H          3.12428        0.63505       -1.75627
H          3.52184        0.46072       -3.46918
H          1.88268        0.22453       -2.96039
H          3.38766       -0.75299       -0.08985