21

C          0.66062        0.12106        0.04087
C          0.39396        0.10078       -1.45678
C          1.04190       -0.99809       -2.24530
H          0.52000       -1.28680       -3.15764
C          2.53408       -1.18483       -2.31523
O          3.11967       -0.00755       -2.89199
O          2.66810        0.04615       -4.28342
C          3.22337       -1.46971       -0.97502
C          2.62452       -2.65654       -0.23048
H          0.44771       -0.84493        0.50784
H          0.03739        0.87361        0.52970
H          1.68796        0.40657        0.26705
H         -0.68956        0.00871       -1.59789
H          0.68802        1.06105       -1.89192
H          2.75545       -2.03078       -2.98031
H          2.88099        0.97872       -4.42839
H          4.29173       -1.65086       -1.14361
H          3.22897       -0.57813       -0.34409
H          2.91544       -3.59232       -0.71457
H          2.97702       -2.67597        0.80523
H          1.53139       -2.63370       -0.20006