14

C          0.89792        0.02484       -0.12475
C          0.44628       -0.54181        1.21312
C          1.04483        0.15467        2.39716
H          0.48965        0.12511        3.33035
C          2.51762        0.33715        2.48164
O          3.10854       -0.93776        2.64492
H          0.57534        1.06486       -0.24072
H          0.47228       -0.56023       -0.94529
H          1.98626       -0.00915       -0.23567
H         -0.64599       -0.47426        1.27749
H          0.70255       -1.60542        1.26824
H          2.92446        0.80639        1.58203
H          2.78813        0.96639        3.33352
H          2.65355       -1.36649        3.39107