24

C          0.78914        0.14310       -0.06766
C          0.16406        0.08253        1.31981
C          0.90270        0.83304        2.38308
H          0.40398        0.94259        3.34393
C          2.40387        0.85905        2.41348
C          3.01817       -0.48515        2.85125
O          2.74162       -1.50463        1.87124
O          1.80022       -2.43415        2.47877
C          4.54660       -0.41666        2.91110
C          5.08198        0.65029        3.84591
H          0.58376        1.10844       -0.53874
H          0.37656       -0.64887       -0.69896
H          1.87376       -0.00010       -0.06417
H         -0.86825        0.44272        1.27256
H          0.08247       -0.95664        1.63920
H          2.79857        1.16636        1.43914
H          2.68557        1.65523        3.11167
H          2.62250       -0.77340        3.83324
H          1.26435       -2.57381        1.66682
H          4.92617       -1.39825        3.22243
H          4.94485       -0.25612        1.90103
H          4.70005        0.50584        4.86057
H          6.17415        0.60720        3.87438
H          4.80800        1.65442        3.50981