17

C          0.63262       -0.08915       -0.09396
C          0.36250       -0.77060        1.23791
C          1.02468       -0.16156        2.43967
H          0.48942       -0.29710        3.37917
C          2.50691       -0.01077        2.56836
O          3.06872       -1.31605        2.59998
C          3.19468        0.80221        1.48382
H          0.47034        0.99220       -0.03699
H         -0.01873       -0.49869       -0.87075
H          1.64828       -0.27639       -0.44323
H         -0.72082       -0.74736        1.40939
H          0.64657       -1.82625        1.17678
H          2.72432        0.46399        3.53220
H          2.60994       -1.80520        3.29528
H          2.70875        1.77072        1.32991
H          4.24419        0.97258        1.74326
H          3.24370        0.26315        0.53605