14

C          0.75736       -0.03192       -0.08805
C          0.39321        1.33437        0.49681
C          1.07568        2.49220       -0.17256
H          0.55744        3.45039       -0.19030
C          2.51207        2.54400       -0.30162
C          3.34224        1.76470        0.41268
H          0.34604       -0.15105       -1.09419
H          0.36826       -0.82680        0.55391
H          1.83347       -0.20666       -0.17351
H         -0.69289        1.46298        0.42789
H          0.64009        1.36946        1.56443
H          2.92069        3.26654       -1.00194
H          4.41199        1.78868        0.27248
H          2.96850        1.06009        1.14780