20

C          0.88470        0.02508       -0.02739
C          0.51727       -0.73106        1.25446
C          1.18478       -0.20766        2.49702
H          0.67388       -0.34038        3.44922
C          2.62130       -0.08221        2.56626
C          3.41641       -0.68514        1.66725
C          4.89517       -0.63292        1.59705
C          5.38699       -2.06818        1.55947
H          0.47531        1.03803       -0.01477
H          0.49995       -0.51138       -0.89868
H          1.95972        0.13799       -0.19579
H         -0.56893       -0.68922        1.38332
H          0.77221       -1.79395        1.15448
H          3.03969        0.49564        3.38454
H          2.98140       -1.30577        0.88957
H          5.18547       -0.11268        0.67594
H          5.31823       -0.08874        2.44508
H          5.01016       -2.58751        0.66837
H          6.47664       -2.09983        1.53775
H          5.03113       -2.62153        2.43603