24

C          0.41695       -0.00504        0.14326
C          0.15902       -1.18967       -0.76610
C          1.00593       -2.40690       -0.58144
H          0.53078       -3.33460       -0.89802
C          2.50551       -2.47065       -0.58744
C          3.20793       -2.11481       -1.91801
C          2.89800       -0.80957       -2.66707
C          3.37067        0.48300       -2.03343
O          3.06432       -2.05425        0.66327
O          3.64664       -0.74023        0.54292
H          0.13353       -0.22450        1.17483
H         -0.16609        0.85500       -0.20369
H          1.45500        0.30660        0.15815
H         -0.88440       -1.49256       -0.62204
H          0.20781       -0.87362       -1.80930
H          2.70022       -3.55263       -0.51493
H          4.29278       -2.21105       -1.79897
H          2.91015       -2.90838       -2.62287
H          3.38806       -0.87734       -3.64652
H          1.83683       -0.73875       -2.90742
H          4.44766        0.46241       -1.85001
H          3.14407        1.32856       -2.68970
H          2.87003        0.70304       -1.09766
H          3.29131       -0.39481        1.38599