26

C          0.52852       -0.14333       -0.20737
C          0.09672        0.57679        1.05389
C          0.93863        1.73555        1.48273
H          0.49291        2.35916        2.25718
C          2.44758        1.74465        1.47691
C          3.07792        0.84391        2.57961
O          2.80036       -0.55239        2.35179
O          1.77870       -0.95340        3.30812
C          4.60614        0.95752        2.67584
C          5.11124        2.36758        2.91787
O          2.93759        1.66014        0.12634
O          3.67820        0.42245       -0.05656
H          0.49667        0.51853       -1.07840
H         -0.11882       -1.00357       -0.39560
H          1.53080       -0.55399       -0.10439
H         -0.93502        0.92254        0.93094
H          0.05550       -0.13864        1.87408
H          2.69320        2.77827        1.75545
H          2.65549        1.14305        3.55106
H          1.28582       -1.52498        2.68729
H          4.95364        0.30195        3.48401
H          5.08190        0.55747        1.77599
H          4.72383        2.76387        3.86078
H          6.20401        2.36503        2.96578
H          4.82596        3.04700        2.10963
H          3.24030        0.15387       -0.89358