21

C          0.51393       -0.27739        0.09832
C          0.09062        0.10272       -1.31128
C          0.88351       -0.52848       -2.41662
H          0.41088       -0.57025       -3.39514
C          2.38262       -0.59562       -2.40642
C          3.06046        0.75450       -2.65892
C          2.79287        1.89769       -1.67203
O          3.03486        1.71983       -0.27488
O          3.83895        0.53276       -0.06789
H         -0.01107       -1.17391        0.43539
H          0.29197        0.53810        0.79508
H          1.57527       -0.49446        0.18210
H         -0.96820       -0.14135       -1.44178
H          0.13423        1.18734       -1.42698
H          2.75249       -1.08257       -1.50083
H          2.68612       -1.27568       -3.21583
H          4.14298        0.59127       -2.71913
H          2.74940        1.10382       -3.65347
H          3.37568        2.76955       -1.98522
H          1.75778        2.23233       -1.76139
H          3.35132        0.22626        0.73137