23

C          0.59428        0.01846        0.28154
C          0.26460       -1.20084       -0.55995
C          1.05939       -2.45134       -0.32310
H          0.55733       -3.35730       -0.66524
C          2.55234       -2.57991       -0.34960
C          3.19165       -2.28425       -1.71864
C          2.91100       -0.94483       -2.41536
C          3.40608        0.29754       -1.69943
O          3.17130       -1.92952        0.73827
H          0.15059       -0.06568        1.27424
H          0.22091        0.92325       -0.20889
H          1.64892        0.18798        0.44798
H         -0.79458       -1.43388       -0.40627
H          0.30458       -0.94474       -1.61883
H          2.76759       -3.63761       -0.14008
H          4.27800       -2.39822       -1.63599
H          2.84178       -3.07012       -2.40344
H          3.38994       -0.96671       -3.40051
H          1.85507       -0.84887       -2.66412
H          4.49098        0.37459       -1.77556
H          2.94545        1.19262       -2.12924
H          3.18486        0.32846       -0.64241
H          3.06588       -0.96922        0.65037