26

C          0.65173        0.01570        0.36573
C          0.22706       -1.21661       -0.41766
C          1.01360       -2.46420       -0.14308
H          0.52488       -3.40584       -0.38701
C          2.52124       -2.50124       -0.15287
C          3.11517       -2.42656       -1.58212
C          2.88532       -1.11351       -2.35507
C          3.32178        0.14818       -1.62419
O          4.71010        0.39156       -1.81683
O          5.31262        0.33772       -0.49107
O          4.49454       -2.81160       -1.69214
O          5.16659       -2.51292       -0.44303
H          0.09766        0.09093        1.30197
H          0.47049        0.91981       -0.22672
H          1.69876        0.01687        0.65895
H         -0.83387       -1.40496       -0.22631
H          0.26393       -1.00916       -1.48871
H          2.93785       -1.73904        0.51355
H          2.83439       -3.44697        0.31242
H          2.59712       -3.20563       -2.15516
H          3.40446       -1.16549       -3.31777
H          1.82669       -1.03147       -2.60812
H          2.76772        1.01410       -2.00399
H          3.11947        0.10085       -0.56035
H          6.05652       -0.22055       -0.73831
H          5.99372       -2.21728       -0.84491