8

C          1.05394        0.11938        0.04034
C          0.55594        1.39581        0.74133
O          1.03634        2.42283        0.05927
H          0.69698        0.05435       -0.99525
H          0.68066       -0.76457        0.57052
H          2.14944        0.05700        0.03179
H         -0.53672        1.27832        0.81186
H          0.85395        1.28086        1.79520