16

C          0.82523        0.07307       -0.08296
C          0.34336       -1.35163        0.13771
C          0.96786       -2.02104        1.32751
H          0.41521       -2.82843        1.79470
C          2.46126       -2.04349        1.47007
C          3.08012       -2.88602        0.36761
H          0.53104        0.71917        0.74984
H          0.39466        0.47872       -1.00301
H          1.91481        0.12669       -0.18694
H         -0.74606       -1.34774        0.26609
H          0.54889       -1.95287       -0.75372
H          2.86552       -1.02905        1.45175
H          2.72409       -2.46132        2.45028
H          2.82023       -2.49719       -0.62427
H          4.17070       -2.88549        0.44637
H          2.72679       -3.91951        0.42527