20

C          0.80395        0.14791        0.02233
C          0.21001       -1.20542        0.39337
C          0.94775       -1.91404        1.49168
H          0.45873       -2.78296        1.92736
C          2.45308       -1.92348        1.51126
C          3.05479       -2.81019        0.40300
C          2.73169       -2.40660       -1.01635
C          3.56738       -1.88518       -1.91106
H          0.55110        0.89037        0.78364
H          0.41698        0.48260       -0.94373
H          1.89434        0.13911       -0.07367
H         -0.84642       -1.09217        0.65167
H          0.18718       -1.86167       -0.47724
H          2.85384       -0.90414        1.46722
H          2.77755       -2.30466        2.48935
H          4.14092       -2.83405        0.53622
H          2.69086       -3.83407        0.54941
H          1.71504       -2.56858       -1.36227
H          3.18823       -1.58777       -2.88799
H          4.62004       -1.73683       -1.70176