26

C          0.31270       -0.09498       -0.12950
C          0.11502        0.06883        1.36439
C          0.97359        1.05040        2.10574
H          0.47701        1.43653        2.99853
C          2.47308        1.05612        2.26248
C          3.09235       -0.18402        2.93614
C          2.88554       -1.57126        2.31790
C          3.41886       -1.78913        0.91243
O          4.84299       -1.79140        0.88370
O          5.25624       -0.40188        0.76668
O          3.28320        1.64313        1.23609
O          2.78917        1.29885       -0.07657
H          0.14430        0.84642       -0.65906
H         -0.38321       -0.84390       -0.51889
H          1.30060       -0.45970       -0.38898
H         -0.92455        0.38667        1.51139
H          0.16618       -0.90608        1.85200
H          2.61193        1.82650        3.03722
H          4.16568       -0.01720        3.08136
H          2.66058       -0.23948        3.94643
H          3.37904       -2.29287        2.98055
H          1.82911       -1.84086        2.35151
H          3.08612       -2.77158        0.55915
H          3.04317       -1.07464        0.19029
H          5.99812       -0.46215        1.39604
H          3.61665        0.87692       -0.39040