20

C          0.91346        0.04890        0.02300
C          0.44009       -0.44372        1.38245
C          1.04063        0.31852        2.52947
H          0.51120        0.28169        3.47909
C          2.53228        0.44548        2.59799
C          3.11921       -0.91539        2.80318
C          3.85179       -1.56832        1.88314
C          4.31757       -2.97125        2.06865
H          0.58930        1.07932       -0.15253
H          0.51061       -0.58587       -0.77056
H          2.00346        0.01954       -0.07139
H         -0.65159       -0.37814        1.43673
H          0.69447       -1.50415        1.49624
H          2.91504        0.92327        1.68931
H          2.81832        1.10263        3.42565
H          2.84415       -1.41886        3.72605
H          4.09303       -1.08807        0.93883
H          3.93633       -3.60231        1.25943
H          5.40974       -3.00124        2.05286
H          3.97216       -3.39468        3.01724