16

C          0.94308       -0.00081        0.04090
C          0.49614       -0.96854        1.12887
C          1.10100       -0.72315        2.48833
C          0.46448       -1.45022        3.63664
C          2.57642       -0.49592        2.59642
H          0.62342        1.02223        0.26464
H          0.50266       -0.29251       -0.91911
H          2.02790       -0.00403       -0.09024
H         -0.59546       -0.91981        1.20338
H          0.75255       -1.98950        0.82339
H          0.73280       -2.51060        3.59164
H          0.80812       -1.04796        4.59605
H         -0.62443       -1.36464        3.60879
H          3.10643       -1.42936        2.38251
H          2.92408        0.27240        1.90175
H          2.84966       -0.16333        3.60288