21

C          1.00387        0.01732       -0.06070
C          0.49390       -0.77122        1.14558
O          0.89456       -0.09242        2.35066
O          2.34296       -0.24076        2.43686
C         -1.03947       -0.86956        1.16726
C         -1.66077       -1.56850       -0.00900
O         -0.75460       -2.30714       -0.84221
C         -1.75576       -3.07292       -0.18607
C         -1.23864       -4.07166        0.78417
H          0.65007        1.05230       -0.02610
H          0.69500       -0.42015       -1.01239
H          2.09784        0.05197       -0.06435
H          0.92790       -1.77714        1.15817
H          2.46835        0.37304        3.18395
H         -1.37349       -1.34149        2.10041
H         -1.44748        0.14988        1.21826
H         -2.42712       -0.96602       -0.48610
H         -2.53957       -3.48025       -0.81436
H         -2.03649       -4.35501        1.47549
H         -0.91679       -4.97305        0.25257
H         -0.39001       -3.70784        1.36987