18

C          1.14414       -0.09708       -0.06443
C          0.61478       -1.27774        0.75011
O          1.14178       -1.36156        2.08028
O          2.58388       -1.23358        2.01324
C         -0.87785       -1.19929        0.92816
H         -1.38616       -2.13214        1.15842
C         -1.51495        0.05914        1.44716
C         -1.10833        0.33435        2.88741
H          0.89468        0.86656        0.39166
H          0.72994       -0.11406       -1.07921
H          2.23453       -0.11795       -0.14565
H          0.86315       -2.21248        0.23589
H          2.69771       -0.99500        2.95878
H         -1.25681        0.91294        0.81201
H         -2.60421       -0.04200        1.38847
H         -0.03129        0.51094        2.97439
H         -1.60502        1.22816        3.27104
H         -1.36632       -0.51421        3.53028