18

C          1.03777       -0.00850       -0.04564
C          0.50322       -0.54356       -1.37084
O          0.90489       -1.91330       -1.52450
O          2.34513       -1.87365       -1.76170
C         -1.03174       -0.47655       -1.43317
C         -1.61175        0.92873       -1.23026
C         -1.08862        1.95673       -2.18058
H         -1.62337        2.89250       -2.29789
H         -0.05799        1.94248       -2.51787
H          0.67459       -0.61839        0.78802
H          0.74959        1.03188        0.12458
H          2.13063       -0.04925       -0.02021
H          0.92662        0.01923       -2.20939
H          2.47914       -2.84214       -1.76031
H         -1.37551       -0.88740       -2.39214
H         -1.45343       -1.14679       -0.67118
H         -2.70229        0.88218       -1.32861
H         -1.41538        1.27008       -0.20817