14

C          1.07369        0.06546        0.00682
C          0.55506        1.31421       -0.70032
C          1.06185        1.44386       -2.13620
O          0.31568        1.64187       -3.09863
C          2.55484        1.44985       -2.34654
O         -0.86361        1.41008       -0.64796
O         -1.39007        0.22095       -1.18679
H          0.76227       -0.84389       -0.51792
H          0.67957        0.00390        1.02663
H          2.16615        0.05430        0.06140
H          0.93021        2.19328       -0.16052
H          2.99182        2.31538       -1.84223
H          3.00352        0.52559       -1.97901
H          2.76410        1.52368       -3.41777