16

C          1.02380       -0.05040        0.07643
C          0.51651        1.37942       -0.16058
C          1.05863        1.91076       -1.46237
H          0.57996        2.76248       -1.93606
H          2.09089        1.71317       -1.73513
C         -1.01861        1.36803       -0.19519
C          1.00611        2.29969        0.96365
H          0.67420       -0.73451       -0.70561
H          0.66731       -0.43905        1.03819
H          2.11897       -0.09354        0.08900
H         -1.43020        1.01764        0.75924
H         -1.42584        2.36828       -0.38242
H         -1.39687        0.70382       -0.98105
H          0.64207        1.96265        1.94091
H          2.10138        2.32572        1.00679
H          0.65747        3.32849        0.81476