15

C          1.11532        0.11730       -0.02226
C          0.55627       -0.26455        1.34712
O          0.98189        0.70335        2.32413
O          2.42698        0.55759        2.44701
C         -0.98511       -0.26379        1.36099
C         -1.64736       -1.14606        0.34891
H         -2.68056       -1.44104        0.49603
H         -1.25573       -1.22882       -0.65859
H          0.75960        1.10978       -0.31798
H          0.83439       -0.60449       -0.79339
H          2.20846        0.16199       -0.00660
H          0.92586       -1.25253        1.64922
H          2.56456        1.35222        2.99973
H         -1.33016       -0.55615        2.36128
H         -1.34846        0.76103        1.21599