18

C          1.06451        0.09469        0.00959
C          0.46421       -1.31218       -0.09367
C          0.98197       -2.21613        1.04275
C          0.66781       -1.74222        2.42602
H          0.70718       -2.44018        3.25463
H          0.69100       -0.68559        2.67007
C         -1.07231       -1.29565       -0.14558
O         -1.55083       -0.60822       -1.30643
O         -1.64922        0.79913       -0.94525
H          0.65791        0.64348        0.86521
H          0.86165        0.68373       -0.88886
H          2.15239        0.04353        0.12252
H          0.82014       -1.73519       -1.04340
H          0.57530       -3.22718        0.91889
H          2.07162       -2.30614        0.95800
H         -1.44135       -2.32499       -0.23183
H         -1.51991       -0.87108        0.76022
H         -1.46566        1.14616       -1.83991