20

C          1.09613       -0.33227       -0.29470
C          1.27423       -0.70811       -1.77832
C          0.40574       -1.65032       -2.62014
C          0.70092       -2.83396       -3.15128
C          0.48346       -4.14302       -2.36290
C         -0.10704       -4.04333       -0.95548
O         -1.30528       -3.26165       -1.06507
O         -1.35966       -2.31500        0.03015
H          0.68133       -1.08800        0.37301
H          0.53534        0.60518       -0.16632
H          2.09578       -0.09712        0.09858
H          1.17159        0.25840       -2.28724
H          2.31845       -1.00890       -1.89902
H         -0.56721       -1.21676       -2.88201
H          0.30288       -3.09318       -4.15947
H          1.40571       -4.72486       -2.38372
H         -0.26929       -4.73989       -2.90827
H         -0.43509       -5.05653       -0.69521
H          0.61097       -3.73901       -0.17879
H         -1.90982       -1.65637       -0.43960