10

C          1.00198        0.04916        0.05780
C          0.43630        0.21181       -1.36579
C          0.94801       -0.97874       -2.19271
O          0.31034       -1.80843       -2.84015
O         -0.87814        0.25362       -1.25600
H          0.68406       -0.89359        0.52341
H          0.69411        0.87290        0.71495
H          2.09883        0.03842        0.04191
H          0.96731        1.07129       -1.80219
H          2.05059       -1.04292       -2.22563