13

C          0.97345       -0.07839       -0.06898
C          0.50921        0.67912       -1.28369
C         -0.27305        0.06314       -2.20446
C         -0.87068        0.56006       -3.48362
O          1.00210        1.97314       -1.24253
O          0.58811        2.70069       -2.35671
H          0.61728       -1.11267       -0.03969
H          0.61981        0.42488        0.83756
H          2.06845       -0.09892       -0.04274
H         -0.53556       -0.97979       -2.01590
H         -0.51247       -0.05256       -4.31709
H         -1.96073        0.47110       -3.43702
H         -0.65040        1.59319       -3.73585