17

C          1.04598        0.05611        0.07928
C          0.49477       -0.08724        1.49794
C          0.97339        1.02228        2.40947
C          0.19539        1.85994        3.11775
O         -0.93779       -0.19903        1.45893
O         -1.43719        0.99980        0.78093
C         -2.84013        0.99427        0.97271
H          0.72313        0.99671       -0.38128
H          0.66812       -0.75105       -0.55801
H          2.13966        0.03502        0.06511
H          0.86280       -1.03582        1.90999
H          2.05104        1.14434        2.47892
H          0.61584        2.65578        3.71820
H         -0.88537        1.78166        3.09029
H         -3.27570        0.18472        0.38410
H         -3.09351        0.87736        2.03095
H         -3.23367        1.95076        0.62023