11

C          1.07247        0.04002        0.06233
C          0.57436        1.45549        0.31265
O          1.08682        2.33053       -0.67770
C         -0.90140        1.56030        0.21410
H         -1.39272        2.42417        0.64678
H         -1.42169        1.03470       -0.57855
H          0.75057       -0.32671       -0.91925
H          0.71044       -0.65406        0.82784
H          2.16775        0.01385        0.06039
H          0.90759        1.80431        1.29590
H          2.05667        2.28735       -0.62988