15

C          1.32602        0.39092        0.30444
C          1.37934        1.92142       -0.06264
C          0.93863        2.25749       -1.49713
O          0.50813        3.32555       -1.87626
C          1.04675        1.06913       -2.41049
O         -0.29410        1.18176       -1.84563
O         -1.13723        0.03921       -1.87970
H          0.84720       -0.29290       -0.41399
H          0.77353        0.19984        1.22628
H          2.34040       -0.01407        0.39435
H          0.76276        2.50795        0.62369
H          2.40920        2.28260       -0.05911
H          1.82780        0.43891       -1.95850
H          1.54201        1.68211       -3.18574
H         -1.86552        0.50734       -1.39981