24

C          1.21835        0.04672       -0.22366
C          0.86351        1.55856        0.02216
C          0.98259        3.09847       -0.53959
C          0.38696        4.52684       -0.25817
C          1.79720        4.96579        0.05608
O          2.33732        3.71553       -0.51971
C          2.21092        5.21980        1.47899
C          2.23206        3.92305        2.27367
O          1.08126        3.10795        2.62733
O         -0.16907        3.42514        1.94661
H          0.84234       -0.35638       -1.17596
H          0.75954       -0.60749        0.53724
H          2.30593       -0.12511       -0.19221
H          1.45294        1.59508        0.91805
H          1.18399        1.42865       -1.03785
H          0.58561        2.97271       -1.54745
H         -0.29509        4.86475        0.48904
H          0.10901        4.99162       -1.20940
H          1.92808        5.91314       -0.47903
H          1.59696        5.98886        1.96321
H          3.22767        5.67868        1.44453
H          2.65958        4.19759        3.23636
H          2.97778        3.26420        1.80778
H         -0.38967        2.53487        1.59017