14

C          1.08265       -0.06881       -0.03936
C          0.56492       -1.38234        0.46984
C         -0.20196       -1.45709        1.57291
C          0.92631       -2.61438       -0.32379
O          0.48481       -2.49963       -1.68074
O         -0.97446       -2.52925       -1.64300
H          0.75459        0.76709        0.58814
H          0.72069        0.12382       -1.05452
H          2.17712       -0.06579       -0.05145
H         -0.58991       -2.40754        1.92533
H         -0.48022       -0.57049        2.13188
H          2.01499       -2.73774       -0.33905
H          0.50626       -3.52933        0.11138
H         -1.10602       -2.34221       -2.58892