26

C          1.13462       -0.08210        0.11357
C          0.62056       -0.46367       -1.27362
O          1.01384       -1.81778       -1.55365
O          2.45527       -1.76849       -1.76888
C         -0.90838       -0.40218       -1.33993
C         -1.48995        0.98571       -1.02991
O         -1.13707        1.91319       -2.06934
O          0.18518        2.43103       -1.73139
C         -3.02339        0.95286       -0.92905
C         -3.57374       -0.04029        0.10300
C         -3.03316        0.12756        1.48720
H         -3.55795       -0.33127        2.31812
H         -1.99928        0.40307        1.66519
H          0.76167       -0.78442        0.86718
H          0.84390        0.92822        0.40882
H          2.22639       -0.12256        0.14881
H          1.05037        0.17319       -2.05202
H          2.57542       -2.73014       -1.89420
H         -1.23861       -0.72401       -2.33679
H         -1.29291       -1.15630       -0.64453
H         -1.11734        1.38070       -0.08103
H          0.47479        2.59652       -2.64889
H         -3.38340        1.96447       -0.69586
H         -3.44615        0.71922       -1.91511
H         -4.66450        0.05483        0.13827
H         -3.37355       -1.06677       -0.22152