24

C          1.02093       -0.10113       -0.00193
C          0.50409       -0.07995       -1.43854
O          0.94106       -1.26765       -2.12143
O          2.38701       -1.15717       -2.25639
C         -1.03082       -0.07902       -1.49645
C         -1.64405        1.08845       -0.79122
O         -1.46907        2.34620       -1.46330
C         -2.81791        1.88596       -1.31560
C         -3.52901        1.56328       -2.58512
C         -4.58302        0.49904       -2.32596
H          0.66920       -0.99695        0.52046
H          0.70484        0.78379        0.55709
H          2.11475       -0.12858        0.02200
H          0.89286        0.79880       -1.96856
H          2.52404       -2.04608       -2.63330
H         -1.33485       -0.12506       -2.54809
H         -1.41625       -1.00463       -1.04945
H         -1.53424        1.04781        0.28420
H         -3.45095        2.38500       -0.59365
H         -4.01352        2.47221       -2.96026
H         -2.84492        1.23001       -3.37279
H         -5.26492        0.81859       -1.53048
H         -5.17011        0.30281       -3.22685
H         -4.11729       -0.43850       -2.00397