21

C          1.12111        0.01686       -0.16552
C          0.58461        0.93543        0.92576
O          1.00615        2.27657        0.66717
O          2.44187        2.26614        0.97077
C         -0.93621        0.83046        1.07936
C         -1.43394       -0.59971        1.32110
C         -1.00411       -1.22373        2.64598
O         -1.85940       -1.56484        3.47317
C          0.45783       -1.47814        2.93773
H          0.78214        0.35859       -1.14724
H          0.81926       -1.02388       -0.03298
H          2.21438        0.02394       -0.17143
H          1.03808        0.69622        1.87757
H          2.60094        3.21136        0.81332
H         -1.27335        1.47793        1.89947
H         -1.41487        1.23399        0.17645
H         -2.53282       -0.58137        1.31589
H         -1.16783       -1.27664        0.50277
H          0.93913       -1.99419        2.10361
H          0.98418       -0.55973        3.18855
H          0.55518       -2.09671        3.83214