15

C          1.04914       -0.05916       -0.10396
C          0.50988       -1.34999       -0.71242
C          0.97636       -2.56110        0.03886
C          0.79086       -3.94862       -0.51928
O          2.05979       -3.27751       -0.57074
O         -0.92789       -1.31483       -0.76736
O         -1.41364       -1.29581        0.60869
H          0.72392        0.05663        0.93594
H          0.67504        0.81206       -0.65159
H          2.14336       -0.04454       -0.11353
H          0.84838       -1.40356       -1.75441
H          0.96992       -2.44099        1.11282
H          0.68456       -4.76567        0.18326
H          0.24446       -4.07180       -1.44495
H         -2.36154       -1.27686        0.38392