24

C          1.34555        0.22139        0.14009
C          0.64964        1.01004        1.24480
O          1.01071        2.39563        1.05375
O          2.47122        2.44201        1.08229
C         -0.88412        0.95257        1.29958
C         -1.51331       -0.42216        1.48967
O         -2.21505       -0.63439        2.47664
C         -1.29438       -1.54487        0.48007
C         -1.75542       -1.28893       -0.95643
C         -1.14070       -0.13622       -1.73299
H          1.17219        0.69610       -0.82660
H          1.09365       -0.82818        0.10114
H          2.43154        0.22128        0.26363
H          1.03190        0.69016        2.21941
H          2.56454        3.32012        0.67321
H         -1.20451        1.55706        2.16332
H         -1.37519        1.49288        0.48875
H         -0.27735       -1.92780        0.54879
H         -1.87269       -2.40455        0.85033
H         -1.54127       -2.19576       -1.53592
H         -2.84147       -1.16106       -0.94986
H         -0.09479       -0.34262       -1.95857
H         -1.63939        0.01003       -2.69341
H         -1.22248        0.82215       -1.23186