11

C          1.02413       -0.13793       -0.04209
C          0.47562        0.55452        1.16841
C         -0.26496        1.61763        0.98095
H         -0.80787        2.41809        0.54368
C          0.82284       -0.03197        2.50787
H          0.70191        0.38298       -0.95305
H          0.65380       -1.16436       -0.10202
H          2.11688       -0.13235       -0.02941
H          0.46260       -1.06460        2.58200
H          1.90919       -0.04423        2.65380
H          0.38385        0.53195        3.33847