15

C          1.07318        0.03093        0.05591
C          0.52425        1.45531        0.11969
O          0.91386        2.17078       -1.06082
O          2.29878        2.39452       -0.94713
C         -1.01184        1.47576        0.16026
C         -1.60142        0.76057        1.36628
H          0.71436       -0.48157       -0.84169
H          0.79307       -0.55406        0.93604
H          2.16712        0.03443        0.00278
H          0.91353        1.97576        1.00184
H         -1.35451        2.51926        0.16003
H         -1.41290        1.03687       -0.76025
H         -1.23264        1.19572        2.29894
H         -2.69329        0.84189        1.35784
H         -1.35789       -0.30606        1.36092