21

C          1.19429       -0.36016       -0.08772
C          0.61770        0.64361       -1.10065
O          0.96816        0.16740       -2.41322
O          2.42386        0.25725       -2.50137
C         -0.91036        0.76998       -1.03939
C         -1.42989        1.44349        0.22977
C         -0.55090        1.53823        1.49203
C         -1.13146        2.92731        1.61173
O         -1.44368        2.91161        0.17953
H          0.88745       -1.37971       -0.33141
H          0.92070       -0.20511        0.95296
H          2.28782       -0.32310       -0.10705
H          1.05844        1.64139       -0.97818
H          2.53341       -0.39725       -3.20266
H         -1.28739        1.29937       -1.92693
H         -1.34586       -0.23601       -1.11911
H         -2.45872        1.10185        0.42316
H         -0.76062        0.80089        2.26592
H          0.52575        1.64870        1.33969
H         -0.38780        3.68260        1.87913
H         -2.01836        3.00261        2.24513