21

C          0.81280       -0.33551       -0.23775
C          0.40271        0.22877       -1.55347
C         -0.38862       -0.57083       -2.30238
C          0.86040        1.61975       -1.97652
C          0.41065        2.82201       -1.09652
C          1.10615        3.04809        0.24664
C          1.80030        4.15297        0.56498
C          1.16573        2.03674        1.26798
H          1.97732        1.34251        1.06941
H          1.08984        2.24473        2.32940
H          0.61976       -1.40033       -0.09473
H          0.19373        0.13841        0.52542
H          1.89032       -0.20860       -0.09683
H         -0.75819       -0.28883       -3.27176
H         -0.68594       -1.53316       -1.89708
H          1.95242        1.64770       -2.09149
H          0.46825        1.80858       -2.98981
H          0.58414        3.72506       -1.70633
H         -0.68058        2.78432       -0.97111
H          2.31057        4.19855        1.52509
H          1.92772        4.97814       -0.11539