22

C          1.12764        0.16967       -0.01878
C          1.16434        1.28662       -1.05777
C          1.26599        0.68291       -2.46120
C          0.04885       -0.25590       -2.70050
C         -1.35910        0.32853       -2.46267
C         -1.59906        1.51225       -3.41962
O         -1.97808        1.35404       -4.54878
C         -1.15312        2.94240       -2.88338
O         -1.48535        3.16497       -1.61507
H          0.65520       -0.76360       -0.33059
H          0.64405        0.46292        0.91257
H          2.16734       -0.09699        0.19567
H          1.85450        2.02765       -0.63825
H          0.33559        1.95470       -1.16707
H          2.25034        0.20958       -2.55029
H          1.24864        1.39212       -3.29746
H          0.17759       -1.18208       -2.12541
H          0.06351       -0.64625       -3.72688
H         -1.86432       -0.43656       -1.85994
H         -1.83076        0.91580       -1.67298
H         -0.09284        3.01278       -3.18918
H         -1.61507        3.62990       -3.59416