22

C          0.93394        0.03745        0.07648
C          0.46042       -0.19257       -1.36477
C          1.02881       -1.55770       -1.91374
C          0.47245       -2.82147       -1.19001
C         -1.03820       -3.08079       -1.13399
C         -1.75041       -3.07699       -2.47475
O          0.85529       -1.65793       -3.21820
O         -0.95422        0.01319       -1.56728
O         -1.66216       -0.04482       -0.29363
H          0.55604       -0.73308        0.75639
H          0.58858        1.00258        0.45615
H          2.02839        0.01898        0.12452
H          0.91908        0.61104       -1.95860
H          2.08611       -1.54041       -1.59013
H          0.95930       -3.71966       -1.59569
H          0.81191       -2.77504       -0.14575
H         -1.20564       -4.05376       -0.65525
H         -1.50610       -2.37682       -0.45024
H         -1.40085       -3.91205       -3.08901
H         -2.83040       -3.17432       -2.33700
H         -1.60052       -2.14945       -3.03112
H         -2.34497       -0.66377       -0.61333