23

C          1.02227        0.00857       -0.13348
C          0.49365       -1.35375        0.29334
C          1.01659       -1.85617        1.66176
O          0.54454       -1.08363        2.77832
O          1.33106        0.14158        2.81360
C          0.58198       -3.31178        1.92617
C          1.05710       -4.32167        0.87504
C          2.53513       -4.33094        0.65403
H          2.99380       -5.18338        0.16601
H          3.12269       -3.42035        0.68718
O         -0.93781       -1.41824        0.18002
O         -1.49088       -0.43628        1.10215
H          0.64071        0.81663        0.49365
H          0.69792        0.22895       -1.15630
H          2.11678        0.02181       -0.10929
H          0.86255       -2.04197       -0.47617
H          2.11108       -1.80383        1.67753
H          0.58041        0.73328        3.01160
H          0.93389       -3.61826        2.92040
H         -0.51428       -3.35688        1.99115
H          0.74019       -5.32559        1.17940
H          0.56506       -4.13028       -0.08430
H         -2.40322       -0.78693        1.09372