12

C          1.02582        0.05922        0.09225
C          0.50719        0.15258        1.50304
O         -0.13142        1.13724        1.88296
C          0.86481       -0.98551        2.44505
O          0.44018       -2.24872        1.95254
O         -1.01397       -2.18228        1.89106
H          0.67671        0.92258       -0.48119
H          0.65431       -0.84947       -0.38717
H          2.11862        0.06109        0.10293
H          1.95347       -1.00773        2.56171
H          0.42609       -0.80424        3.43217
H         -1.15376       -3.08054        1.54093