26

C          1.03159        0.10502        0.17471
C          0.50283        0.26897       -1.24224
C          0.99512       -0.78774       -2.25310
O          0.49647       -2.09341       -1.94376
O          1.35838       -2.63043       -0.96814
C          0.51703       -0.44553       -3.67935
C          1.07349        0.87991       -4.22109
C          2.60341        0.93254       -4.25068
C          3.18554       -0.14061       -5.15730
O         -0.92891        0.41322       -1.24999
O         -1.48720       -0.86604       -0.83861
H          0.64861       -0.79608        0.65833
H          0.70954        0.95141        0.79077
H          2.12635        0.07629        0.17597
H          0.88219        1.24483       -1.56773
H          2.09107       -0.83454       -2.24361
H          0.77978       -1.26684       -4.35719
H         -0.57944       -0.41496       -3.70904
H          0.68575        1.04272       -5.23385
H          0.69650        1.72046       -3.62710
H          2.92417        1.91904       -4.60359
H          3.01581        0.82737       -3.24098
H          2.82108       -0.01141       -6.18111
H          4.27685       -0.08623       -5.16594
H          2.91285       -1.14618       -4.82298
H         -2.42833       -0.62489       -0.96476