14

C          0.92283        0.05454       -0.03591
C          0.41466       -1.32858        0.28259
O         -0.30487       -1.53373        1.26334
C          0.79232       -2.46209       -0.67196
O          0.32020       -2.19640       -1.98564
C          2.29840       -2.65696       -0.71325
H          0.55820        0.75904        0.71639
H          0.55617        0.36693       -1.01667
H          2.01452        0.07012       -0.01798
H          0.31935       -3.38650       -0.32031
H         -0.65315       -2.17213       -1.93753
H          2.69773       -2.85589        0.28629
H          2.56331       -3.48873       -1.37387
H          2.80400       -1.77218       -1.11449