13

C          0.97262       -0.01863        0.06449
C          0.44321       -1.29016       -0.53889
C         -0.32442       -2.13316        0.17324
C          0.83988       -1.58859       -1.95815
O          0.35750       -0.56513       -2.81381
H          0.64790        0.10372        1.10406
H          0.61863        0.85399       -0.49334
H          2.06736       -0.01816        0.05965
H         -0.69603       -3.06079       -0.25075
H         -0.59283       -1.92163        1.20394
H          1.92874       -1.64156       -2.05306
H          0.42855       -2.54230       -2.30666
H         -0.60676       -0.53682       -2.69361