23

C          1.15270        0.22222        0.03263
C          0.56674       -0.86143       -0.86354
C          1.06505       -2.31168       -0.56301
O          0.79329       -2.84025        0.74051
O          1.48812       -2.05556        1.73470
C          0.49725       -3.35715       -1.49867
H          1.08496       -4.26676       -1.60663
C         -0.98811       -3.51686       -1.65537
C         -1.65533       -3.94267       -0.35397
O         -0.85887       -0.67431       -0.93334
O         -1.40213       -0.80462        0.40833
H          0.77667        0.14917        1.05685
H          0.83899        1.20862       -0.32590
H          2.24424        0.18005        0.04864
H          0.90998       -0.63862       -1.88407
H          2.15612       -2.32265       -0.69685
H          0.73073       -2.00645        2.35081
H         -1.43484       -2.59663       -2.03976
H         -1.18918       -4.27074       -2.42351
H         -1.44592       -3.26170        0.47346
H         -2.74155       -3.96514       -0.46109
H         -1.30182       -4.93147       -0.04772
H         -2.24854       -1.21472        0.13196