15

C          1.04534        0.02834        0.05471
C          0.52552       -1.14939       -0.73342
C         -0.23167       -2.08662       -0.13086
C          0.89843       -1.27750       -2.21312
O          0.48330       -0.19126       -2.84025
C          2.42732       -1.37245       -2.36579
H          0.70669       -0.00009        1.09612
H          0.69950        0.97626       -0.36919
H          2.13932        0.03119        0.07562
H         -0.60535       -2.93435       -0.69303
H         -0.49592       -2.01345        0.91560
H          0.52795       -2.25570       -2.55667
H          2.81137       -2.23343       -1.80452
H          2.71738       -1.51041       -3.41484
H          2.95315       -0.48238       -1.99762