19

C          1.00827       -0.00277        0.07423
C          0.47119        0.64805       -1.19740
O          0.87939       -0.12543       -2.33516
O          2.31937        0.08173       -2.45439
C         -1.06490        0.71917       -1.18984
C         -1.64544        1.51998       -0.01937
C         -1.16270        2.96290       -0.00580
H          0.64784       -1.03340        0.15795
H          0.71816        0.54805        0.97247
H          2.10124       -0.04639        0.06088
H          0.88382        1.65565       -1.31622
H          2.45702       -0.55472       -3.18320
H         -1.41334        1.15216       -2.13700
H         -1.47768       -0.29831       -1.17172
H         -2.73973        1.50756       -0.08053
H         -1.39379        1.04059        0.93304
H         -1.46915        3.47832       -0.92118
H         -1.58117        3.49848        0.85065
H         -0.07354        3.02759        0.07486