13

C          1.00387       -0.05435        0.07982
C          0.47872       -1.23496        0.88508
C          0.92042       -1.15066        2.32154
C          0.11754       -1.09275        3.39565
O         -0.94131       -1.24351        0.79170
H          0.64387        0.89454        0.49496
H          0.63700       -0.10343       -0.95106
H          2.09794       -0.03239        0.06268
H          0.84309       -2.17142        0.44922
H          1.99720       -1.14642        2.48409
H          0.52497       -1.03194        4.39866
H         -0.96287       -1.12119        3.30150
H         -1.25275       -0.41987        1.20358