21

C          1.07128       -0.13915       -0.06658
C          0.50954        0.88231       -1.05204
O          0.88953        0.51931       -2.38370
O          2.25891        0.82508       -2.49714
C         -1.02461        0.92317       -1.00529
C         -1.61368        1.33750        0.34891
C         -1.14815        2.71177        0.83926
C         -1.58650        3.83364       -0.08959
H          0.71591       -1.14550       -0.31689
H          0.79010        0.08781        0.96475
H          2.16353       -0.16820       -0.11102
H          0.91180        1.88204       -0.83700
H         -1.39410        1.59125       -1.79395
H         -1.42158       -0.06516       -1.27819
H         -2.70607        1.32971        0.27828
H         -1.36039        0.58614        1.10745
H         -1.56782        2.89242        1.83710
H         -0.06192        2.73348        0.95863
H         -2.67584        3.86194       -0.17259
H         -1.24464        4.79988        0.29412
H         -1.16789        3.71329       -1.09382