18

C          0.66567       -0.35616        0.24941
C          0.36876        0.93734        1.03229
C          1.11067        2.15139        0.47597
C          2.39810        1.84017       -0.21573
C          0.48774        3.52544        0.24175
O          1.21834        3.22883        1.43281
O         -1.04974        1.15238        1.10134
O         -1.52790        1.32439       -0.26700
H          0.30419       -0.28097       -0.78218
H          0.18110       -1.22445        0.70278
H          1.73776       -0.57796        0.20031
H          0.70799        0.77709        2.06389
H          3.02341        1.22393        0.43874
H          2.16793        1.27824       -1.12665
H          2.97323        2.71875       -0.51238
H          0.95783        4.18864       -0.47800
H         -0.58068        3.67601        0.32363
H         -2.47042        1.26786       -0.05589