22

C          1.07602        0.09919        0.15929
C          0.58174        0.43154       -1.25175
C          1.05098       -0.63569       -2.26597
C          0.50442       -2.06124       -2.06326
C         -1.00969       -2.28782       -2.11455
C         -1.68834       -1.85613       -3.40137
O          0.87071       -0.20515       -3.62060
O         -0.82450        0.66570       -1.39058
O         -1.47257        0.29521       -0.20069
H          0.69375       -0.86630        0.50657
H          0.74548        0.85301        0.88008
H          2.16957        0.05629        0.18126
H          1.03981        1.38400       -1.54481
H          2.14017       -0.71178       -2.16154
H          0.96532       -2.71609       -2.81356
H          0.85809       -2.42990       -1.09153
H         -1.19612       -3.35915       -1.97135
H         -1.49842       -1.80823       -1.26587
H         -1.26375       -2.38348       -4.26021
H         -2.75861       -2.07652       -3.35271
H         -1.61172       -0.78247       -3.57338
H          0.01580        0.22874       -3.71895