16

C          1.11450        0.07435        0.03857
C          0.55204        1.31407        0.73177
C          1.02711        2.54738       -0.00975
O          0.31602        3.40019       -0.53888
C         -0.98052        1.27009        0.83182
C         -1.53667        0.04715        1.61213
O         -1.08703        0.11670        2.85573
H          0.75103        0.00560       -0.99252
H          0.83207       -0.84551        0.55938
H          2.20808        0.09887        0.00926
H          0.98959        1.39188        1.73486
H          2.12338        2.66428       -0.04796
H         -1.35174        2.20627        1.27452
H         -1.39688        1.24512       -0.18613
H         -2.62493        0.08805        1.45464
H         -1.28350       -0.83740        1.00811