23

C          0.90792        0.12440       -0.09433
C          0.39420       -0.92893        0.88005
C          0.90416       -0.78919        2.33301
O          0.43473        0.38911        3.00306
O          1.21984        1.50688        2.50291
C          0.46025       -1.98195        3.20468
C          0.97329       -3.34374        2.72673
C          2.49271       -3.40969        2.68383
O         -1.02579       -1.08776        0.80377
O         -1.61633        0.12891        1.18536
H          0.51694        1.12085        0.12088
H          0.58767       -0.12312       -1.11240
H          2.00237        0.15889       -0.07890
H          0.79403       -1.87100        0.48805
H          1.99904       -0.74113        2.33054
H          0.46327        2.12344        2.41775
H          0.79216       -1.81353        4.23775
H         -0.63610       -2.00829        3.26143
H          0.60037       -4.12231        3.40198
H          0.56640       -3.58533        1.73889
H          2.91236       -3.23095        3.67864
H          2.82324       -4.39349        2.34005
H          2.91382       -2.66988        1.99661