17

C          1.27455       -0.24605        0.18919
C          0.90666       -0.36357        1.90982
C          1.18895        0.69627        2.94431
C          0.74535        0.47865        4.13126
C          1.21911        1.86832        1.92088
O         -0.04608        1.48059        0.91569
O         -1.46252        1.67255        1.36814
H          1.04917        0.70284       -0.39359
H          0.61566       -0.92711       -0.33428
H          2.33610       -0.28693       -0.10735
H          0.85020       -1.37121        2.30736
H         -0.13781       -0.06771        2.12809
H         -0.37521        0.27811        4.19458
H          1.17001       -0.49809        4.49359
H          1.93897        1.63169        1.04216
H          2.31465        1.58933        2.20589
H         -1.86490        0.77505        1.20681