15

C          1.02665       -0.04618        0.01591
C          0.50845        0.96811       -0.98242
C         -0.24654        0.55689       -2.02852
C         -0.81392        1.40863       -3.11610
C          0.94300        2.41944       -0.74727
O          0.40805        2.80500        0.39991
H          0.69528       -1.06478       -0.21476
H          0.67693        0.17757        1.02933
H          2.12191       -0.04983        0.01929
H         -0.48826       -0.49908       -2.10621
H         -0.44851        1.05626       -4.08574
H         -1.90528        1.33836       -3.10911
H         -0.55982        2.46604       -3.04320
H          2.03939        2.40018       -0.85265
H          0.68871        3.00943       -1.63563