23

C          0.89232       -0.12842       -0.12589
C          0.37175        0.12019        1.28315
C          0.88063        1.41759        1.94760
O          0.37413        2.58291        1.28724
O          1.22023        2.81944        0.18682
C          0.43637        1.50630        3.42265
C          0.95254        0.36714        4.30953
C          2.47214        0.29799        4.33983
O         -1.06022       -0.00634        1.34228
O         -1.61795        1.09451        0.57125
H          0.50851        0.59812       -0.84530
H          0.56711       -1.11458       -0.47441
H          1.98720       -0.10369       -0.14076
H          0.74931       -0.72586        1.86902
H          1.97620        1.45414        1.90780
H          0.76784        2.46622        3.83979
H         -0.65980        1.53685        3.47727
H          0.58029        0.51118        5.33033
H          0.54743       -0.59543        3.97883
H          2.88980        1.23124        4.72990
H          2.80589       -0.52456        4.97821
H          2.89196        0.12431        3.34462
H         -2.55922        0.89431        0.75154