18

C          1.18780       -0.13999       -0.17359
C          0.51676        0.95618       -0.99817
O          0.87374        0.76882       -2.38355
O          2.31621        0.97645       -2.46850
C         -1.02903        0.93472       -0.93278
C         -1.70491        1.11857        0.39971
H         -2.70577        1.54604        0.38310
C         -1.39338        0.24354        1.56414
H          0.70187       -1.10628       -0.34182
H          1.18161        0.08963        0.89006
H          2.24279       -0.26397       -0.43112
H          0.87536        1.94400       -0.68433
H          2.44770        0.46145       -3.29030
H         -1.40171        1.72743       -1.59907
H         -1.40396        0.00633       -1.38285
H         -1.50210       -0.80858        1.28584
H         -0.39043        0.42654        1.94546
H         -2.06460        0.45557        2.39946