18

C          1.03357        0.03645       -0.11679
C          0.43153       -1.36530        0.02122
C          0.91374       -2.03983        1.31937
C          0.46457       -1.33436        2.59376
C         -1.10332       -1.36190       -0.07532
O         -1.54069       -0.93200       -1.36282
O         -1.70444        0.46189       -1.27981
H          0.62513        0.72409        0.63187
H          0.83553        0.46305       -1.10413
H          2.12068        0.00471        0.00729
H          0.81426       -1.95513       -0.82499
H          0.55941       -3.07718        1.34381
H          2.00995       -2.08853        1.31214
H         -0.62554       -1.32150        2.68053
H          0.85996       -1.85261        3.47230
H          0.82478       -0.30265        2.63028
H         -1.47526       -2.38272        0.05664
H         -1.57013       -0.75186        0.71119