16

C          1.04014        0.05260        0.05984
C          0.49615        0.13496        1.48373
O          0.91201        1.37162        2.08447
O          2.35716        1.27493        2.25318
C         -1.03891        0.10746        1.50807
C         -1.62374       -1.16454        0.91229
H          0.68181        0.89791       -0.53721
H          0.75137       -0.87849       -0.43410
H          2.13330        0.09759        0.05141
H          0.88111       -0.69461        2.08938
H          2.49180        2.20231        2.52946
H         -1.38718        0.21521        2.54346
H         -1.43477        0.98103        0.97459
H         -1.25725       -2.04715        1.44563
H         -2.71563       -1.15160        0.97652
H         -1.36563       -1.27012       -0.14542