18

C          1.04326        0.12230        0.04535
C          0.51413       -1.10898        0.77577
O          0.93064       -1.07213        2.14570
O          2.38091       -1.23329        2.12102
C         -1.02157       -1.16186        0.73575
C         -1.59364       -1.20023       -0.68017
C         -1.13526       -2.43021       -1.42097
O         -1.90770       -3.26180       -1.89096
H          0.68341        1.03533        0.53087
H          0.74447        0.13815       -1.00533
H          2.13583        0.15349        0.06499
H          0.92359       -2.02297        0.33098
H          2.51830       -1.12536        3.07879
H         -1.37147       -2.03566        1.30158
H         -1.42763       -0.29047        1.26732
H         -2.68755       -1.19801       -0.64432
H         -1.29865       -0.32038       -1.25974
H         -0.04670       -2.54104       -1.55957