22

C          0.97270       -0.07991        0.00347
C          0.39231        0.80610       -1.10747
C          0.88329        0.30134       -2.45707
C          0.10613       -0.09425       -3.47928
C         -1.14849        0.87070       -1.02387
C         -1.66773        1.40756        0.26630
C         -2.40869        2.52522        0.35748
C         -2.90614        3.07888        1.66892
O         -2.40669        4.30005        1.73469
H          0.61638       -1.11143       -0.09263
H          0.69027        0.28047        0.99789
H          2.06737       -0.09145       -0.02424
H          0.79248        1.82161       -0.97387
H          1.96281        0.27371       -2.58958
H          0.52885       -0.44131       -4.41283
H         -0.97724       -0.07652       -3.41657
H         -1.52524        1.48824       -1.85058
H         -1.56840       -0.13448       -1.15842
H         -1.43231        0.87226        1.17905
H         -2.67419        3.07692       -0.54067
H         -3.99831        2.94868        1.62803
H         -2.63360        2.35455        2.45300