18

C          0.95951       -0.72513       -0.39232
C          0.82191       -1.60670        0.88406
C          1.47558       -1.31904        2.24016
O          2.92337       -1.37902        2.17974
C          2.34865       -0.11790        2.58972
C          2.01053        0.98634        1.71090
O          0.67650        1.40319        2.12576
O         -0.38725        1.03466        1.17968
H          0.73954        0.34222       -0.32969
H          0.24753       -1.02634       -1.16498
H          1.96934       -0.75764       -0.81100
H          1.15953       -2.60231        0.58404
H         -0.24752       -1.70345        1.11564
H          0.88405       -1.56254        3.10660
H          2.46006        0.18693        3.60869
H          2.68274        1.82294        1.91570
H          2.23565        0.76670        0.67013
H         -0.80438        0.29937        1.67447