12

C          1.03134       -0.10824       -0.06010
C          0.49231       -1.49203       -0.31659
C         -0.25980       -2.11694        0.60982
C          0.87075       -2.17642       -1.63185
O          0.35953       -1.44942       -2.61173
H          0.70913        0.27699        0.91398
H          0.68012        0.60271       -0.81468
H          2.12588       -0.11630       -0.06613
H         -0.63634       -3.11598        0.42651
H         -0.51746       -1.63723        1.54445
H          1.96367       -2.30883       -1.57953
H          0.53857       -3.22483       -1.55315