12

C          1.01752        0.06845        0.13914
C          0.49709        1.41131        0.56662
C         -0.31953        2.13040       -0.22724
C          0.94397        1.92539        1.83175
H          1.91083        1.72884        2.26965
O          0.23955        2.94861        2.40394
H          0.69260       -0.18468       -0.87714
H          0.65259       -0.72476        0.80174
H          2.11254        0.04955        0.14337
H         -0.68454        3.10392        0.08165
H         -0.63109        1.76973       -1.19827
H          0.66095        3.29398        3.20802