12

C          0.94271       -0.03604       -0.08892
C          0.42206        0.37070       -1.43765
C         -0.34988       -0.44758       -2.17069
C          0.80723        1.73765       -1.92620
H          0.61411       -1.04422        0.18708
H          0.58501        0.65155        0.68417
H          2.03739       -0.03172       -0.08255
H         -0.72498       -0.15132       -3.14526
H         -0.62692       -1.43514       -1.81542
H          0.44323        2.50788       -1.23871
H          1.89561        1.82461       -2.00543
H          0.38539        1.95034       -2.91483