16

C          0.91150        0.03949        0.03918
C          0.40213       -1.40357        0.06154
C          0.92328       -2.19382        1.29762
O          0.43303       -1.67582        2.41335
C          0.43112       -3.65042        1.21347
C         -1.11550       -1.41001       -0.03581
O         -1.73676       -1.84117       -1.01176
H          0.56542        0.60443        0.91144
H          0.55463        0.56938       -0.84976
H          2.00662        0.05829        0.03347
H          0.77446       -1.89933       -0.84706
H          2.01526       -2.24650        1.16866
H          0.79099       -4.11746        0.28924
H          0.80076       -4.24847        2.05449
H         -0.66413       -3.72545        1.21060
H         -1.65538       -0.97616        0.82236