26

C          0.92952       -0.13775       -0.08467
C          0.39115       -0.18737        1.33740
C          0.89404        0.94142        2.27015
O          0.43282        2.25051        1.90096
O          1.23587        2.68411        0.76710
C          0.40972        0.70819        3.71484
C          0.97730       -0.56370        4.36227
C          2.50889       -0.63296        4.35326
C          3.16117        0.52580        5.03199
H          4.19809        0.45181        5.33660
H          2.74723        1.52591        4.95536
O         -1.03980       -0.32503        1.34359
O         -1.59273        0.87815        0.73783
H          0.54872        0.72117       -0.64071
H          0.60842       -1.02987       -0.63332
H          2.02379       -0.10894       -0.08325
H          0.76202       -1.13771        1.74022
H          1.98972        0.97151        2.25205
H          0.49267        3.07052        0.26599
H          0.65892        1.58325        4.32755
H         -0.68702        0.67159        3.74030
H          0.60736       -0.63700        5.39221
H          0.58179       -1.44894        3.84897
H          2.82897       -1.56114        4.83845
H          2.88074       -0.68632        3.32424
H         -2.50106        0.75967        1.08053