17

C          0.93325        0.00153       -0.00798
C          0.39105       -0.36157        1.38834
C          0.85926        0.69214        2.44888
C          0.44042        2.14137        2.15477
C          0.43917        0.30571        3.87558
O         -0.93170       -0.37204        1.29977
H          0.57342        0.97279       -0.36856
H          0.64595       -0.74539       -0.75832
H          2.02876        0.04359        0.01174
H          0.90952       -1.29257        1.66100
H          1.95993        0.68103        2.43924
H         -0.64840        2.25182        2.13575
H          0.83039        2.81973        2.92073
H          0.83746        2.48591        1.19538
H          0.81069       -0.69165        4.13339
H          0.84983        1.01233        4.60497
H         -0.64960        0.30679        3.99151