7

C          0.95627        0.08144        0.03814
C          0.44960        1.46978        0.39340
C          0.01498        2.66070        0.69814
H          0.59613       -0.20475       -0.95395
H          0.59613       -0.64610        0.77084
H          2.04979        0.07248        0.03585
H         -0.34024        3.63403        0.94720