21

C          1.07886       -0.02366        0.08988
C          0.57874        1.33714        0.54943
C          0.99944        2.42998       -0.41703
C          0.49090        3.85257       -0.11226
C          1.89543        4.25412       -0.60621
O          2.37109        2.91418       -0.20277
C          2.56604        5.42614        0.09156
O          3.88105        5.64425       -0.43446
O          4.73426        4.64888        0.19421
H          0.71277       -0.25735       -0.91612
H          0.72143       -0.80748        0.76580
H          2.17198       -0.05976        0.06656
H         -0.51650        1.30029        0.58947
H          0.93248        1.54399        1.56517
H          0.86417        2.13623       -1.46763
H         -0.34925        4.19828       -0.71557
H          0.30090        4.04843        0.94870
H          1.96244        4.36006       -1.69812
H          2.00090        6.33945       -0.13355
H          2.59807        5.32675        1.18127
H          5.49996        4.77561       -0.39985