21

C          1.03228       -0.07155       -0.11964
C          0.56904        1.26210        0.42520
C          1.01494        2.46230       -0.42365
O          0.29343        3.60110        0.09520
C          1.27841        4.57667        0.44797
C          2.57085        3.81876        0.75932
C          2.50662        2.86174       -0.41292
O          2.81558        2.94815        1.86804
O          1.83309        3.13040        2.90247
H          0.67654       -0.20888       -1.14459
H          0.62598       -0.88676        0.48912
H          2.12197       -0.14856       -0.10630
H         -0.52904        1.25974        0.47130
H          0.87850        1.35238        1.47009
H          0.68963        2.30686       -1.45706
H          0.90167        5.28559        1.18637
H          1.43494        5.15260       -0.48199
H          3.41195        4.51746        0.74732
H          2.74642        3.43314       -1.32129
H          3.19750        2.01903       -0.35331
H          2.07034        2.29894        3.38600