16

C          0.82754       -0.05758       -0.15947
C          0.49096       -1.28448        0.66169
C          0.96003       -1.22317        2.08440
O          2.19855       -1.92505        2.29955
C          2.19944       -0.54510        2.65166
C          3.16908        0.29731        1.90490
H          0.55507        0.85781        0.37449
H          0.30525       -0.07419       -1.11964
H          1.89176       -0.02258       -0.39367
H         -0.60170       -1.38857        0.67338
H          0.87134       -2.18684        0.16776
H          0.15010       -1.42604        2.77942
H          2.17792       -0.28427        3.70421
H          2.77006        1.31035        1.79182
H          4.10799        0.37020        2.46125
H          3.42652       -0.09842        0.91985