18

C          0.82243        0.06476       -0.36974
C          0.39428       -1.37954       -0.56149
C          0.80992       -2.29761        0.55892
C          0.58909       -1.84883        1.98341
O          1.28962       -0.65036        2.36238
O          2.70485       -0.83642        2.08120
C          0.75102       -3.79356        0.26656
O          1.98853       -3.07629        0.31314
H          0.34206        0.50325        0.51064
H          0.53068        0.67841       -1.22460
H          1.90729        0.13859       -0.25047
H         -0.69748       -1.41686       -0.64783
H          0.79860       -1.73950       -1.51645
H         -0.47372       -1.60710        2.08484
H          0.81604       -2.62832        2.71806
H          2.87225        0.06868        1.77461
H          0.55775       -4.50359        1.06301
H          0.40897       -4.13412       -0.70555