22

C          0.89305        0.00318       -0.00301
C          0.45849        1.07728        1.00184
C          0.97071        2.43019        0.45489
C          0.36094        3.77471        0.87944
C          1.00198        4.64486        1.96747
C          1.77547        3.98724        3.05059
C          0.97382        3.10575        3.98177
O          1.92637        2.56736        3.05437
H          0.54708        0.26666       -1.00868
H          0.49178       -0.98425        0.23782
H          1.98679       -0.06635       -0.03663
H         -0.63130        1.06104        1.11163
H          0.87660        0.80036        1.97698
H          0.74663        2.38854       -0.61645
H          2.06240        2.46257        0.53022
H          0.44558        4.40176       -0.02233
H         -0.71823        3.68984        1.04778
H          1.62096        5.42602        1.49988
H          0.19617        5.21771        2.45378
H          2.63182        4.54789        3.38446
H         -0.07541        2.96717        3.75049
H          1.22476        3.06513        5.02643