13

C          0.96288       -0.03012        0.04064
C          0.48210       -1.16916        0.92451
C          0.96375       -1.10196        2.34089
C          2.41694       -1.36427        2.65095
O          1.86608       -0.04029        2.67573
H          0.61094        0.93408        0.42189
H          0.58469       -0.15349       -0.97854
H          2.05630        0.00296       -0.00672
H         -0.61450       -1.17360        0.92474
H          0.79635       -2.12501        0.48886
H          0.21282       -1.37721        3.06844
H          2.66736       -1.82269        3.59833
H          3.09028       -1.60619        1.83835