16

C          0.68761       -0.22189        0.32539
C          0.37012        1.25880        0.48809
C          0.91696        2.11152       -0.63412
C          2.13200        1.62116       -1.36419
C          0.03447        3.17802       -1.25689
O          1.02029        3.50206       -0.27544
H          0.31544       -0.59809       -0.63334
H          0.23460       -0.80981        1.12765
H          1.76836       -0.39871        0.35981
H         -0.71920        1.37541        0.54615
H          0.77913        1.60768        1.44375
H          2.92773        1.38058       -0.65139
H          1.89234        0.71727       -1.93367
H          2.52578        2.35952       -2.06886
H          0.21962        3.48542       -2.27956
H         -1.00276        3.26387       -0.95383