24

C          0.95646        0.21729        0.00664
C          0.51534       -0.61008       -1.20116
C          1.19964       -1.98572       -1.27475
C          1.83314       -2.44007        0.02235
C          2.05249       -3.90262       -0.22333
C          0.81272       -4.28832       -1.02351
O          0.29604       -3.05524       -1.60439
C         -0.23841       -4.96111       -0.12802
O         -1.27952       -5.57037       -0.89932
O         -2.15136       -4.48735       -1.32579
H          0.60594       -0.23657        0.94005
H          0.55394        1.23191       -0.02870
H          2.04880        0.29279        0.04914
H         -0.57692       -0.69866       -1.21758
H          0.78479       -0.04227       -2.10235
H          1.94242       -1.96091       -2.08328
H          2.75011       -1.89918        0.26263
H          1.12140       -2.33789        0.85010
H          2.18130       -4.45795        0.71022
H          2.95588       -4.04275       -0.82707
H          1.07765       -4.96372       -1.84455
H          0.23009       -5.77785        0.43627
H         -0.67344       -4.26389        0.59605
H         -2.55401       -4.96885       -2.07782