18

C          1.04448       -0.10175        0.06759
C          0.52930       -0.06051        1.49958
C          1.02547        1.16356        2.27027
C          0.92650        2.44519        1.49253
C          0.90395        3.44952        2.59997
O          0.11780        2.84662        3.62373
O          0.21111        1.37953        3.42994
O          0.35003        4.67574        2.16750
H          0.68188        0.75622       -0.50864
H          0.69545       -1.00208       -0.44468
H          2.13846       -0.08812        0.04616
H         -0.56740       -0.08925        1.49923
H          0.84570       -0.96890        2.02819
H          2.05227        0.99409        2.61737
H          1.74898        2.59793        0.78797
H         -0.01299        2.48628        0.92728
H          1.90699        3.64010        2.99668
H         -0.52521        4.46046        1.79667