16

C          1.01005        0.08417       -0.03897
C          0.36553        1.20865        0.75259
C          0.53729        2.58745        0.10032
C          0.96696        3.57716        1.13877
C          2.01769        4.63046        0.92358
O          2.32997        3.38081        1.54398
H          0.69598        0.09440       -1.08618
H          0.73000       -0.88104        0.39572
H          2.10205        0.16073       -0.00065
H         -0.70331        1.00330        0.88008
H          0.80206        1.19760        1.75913
H          1.25352        2.55448       -0.73055
H         -0.41891        2.91512       -0.32643
H          0.21572        3.74950        1.90045
H          2.03387        5.49310        1.57850
H          2.36555        4.81476       -0.08462