22

C          1.02200       -0.04365       -0.26330
C          0.79310       -0.35526        1.19897
C          1.49132        0.71750        2.04642
C          0.39532        1.54095        2.68109
C          0.67769        2.65678        3.68842
C         -0.30919        1.87645        4.57664
O         -0.19428        0.71823        3.72630
C         -1.76748        2.27932        4.57564
H          0.62670        0.95064       -0.50070
H          0.52812       -0.77676       -0.90332
H          2.09449       -0.04811       -0.47623
H         -0.29075       -0.38630        1.38321
H          1.17332       -1.35082        1.45207
H          2.11295        0.24469        2.81446
H          2.15012        1.35305        1.44525
H         -0.35603        1.85987        1.94418
H          0.34262        3.65635        3.38656
H          1.70974        2.70613        4.04221
H          0.09447        1.66516        5.57752
H         -2.35623        1.54205        5.13014
H         -1.91117        3.26364        5.01860
H         -2.16582        2.30143        3.55119