18

C          0.95216       -0.01812        0.13359
C          0.42342        1.17508        0.93101
C          0.95345        2.49499        0.34743
O          1.03179        2.33078       -1.10103
O          1.56347        3.54112       -1.68394
C          0.29913        3.80349        0.85652
O          1.60562        4.36909        1.16428
C          2.17740        3.03292        1.12465
H          0.58219        0.00542       -0.89881
H          0.62248       -0.96401        0.56933
H          2.04671       -0.00898        0.09159
H         -0.67149        1.16389        0.90263
H          0.71519        1.05740        1.98193
H          1.50993        3.22979       -2.61241
H         -0.23186        4.39394        0.10379
H         -0.31169        3.73407        1.76216
H          2.30118        2.66639        2.15210
H          3.14137        2.99145        0.61397