16

C          0.93340        0.02493       -0.12339
C          0.39749       -0.98334        0.88163
C          0.89819       -0.64400        2.27544
C          0.45359        0.70126        2.87161
O          0.18296        0.06159        4.14772
C          0.12173       -1.22524        3.46952
H          0.58596        1.03644        0.11349
H          0.59084       -0.21965       -1.13309
H          2.02750        0.04080       -0.12009
H         -0.69678       -0.98188        0.84689
H          0.73008       -1.99028        0.60273
H          1.97965       -0.80568        2.37066
H          1.23726        1.46205        2.93722
H         -0.45847        1.13854        2.45386
H         -0.91730       -1.51370        3.28415
H          0.63431       -2.01203        4.03059