21

C          1.08635        0.09766        0.00178
C          0.52878       -0.52101        1.26824
C          0.94121        0.23963        2.52070
O          0.84555        1.70734        2.43862
C          0.48229        1.71468        3.86322
C         -0.02906        0.26172        3.73084
O         -1.45110        0.01018        3.53588
O         -1.91891        0.86945        2.45596
C         -0.45574        2.83636        4.25363
H          0.73113        1.12539       -0.12201
H          0.75403       -0.47736       -0.86894
H          2.17977        0.10956        0.01112
H         -0.55572       -0.59314        1.16695
H          0.88841       -1.55462        1.35161
H          1.97270       -0.03391        2.79371
H          1.39395        1.78694        4.47578
H          0.31845       -0.37374        4.55318
H         -2.75111        0.39001        2.28065
H         -0.79103        2.69486        5.28725
H          0.05353        3.80388        4.20371
H         -1.34314        2.89721        3.62082