18

C          1.06948       -0.00099        0.06937
C          0.56552       -0.73675        1.30016
C          1.03955       -0.06320        2.55237
C          0.21218        0.44783        3.47692
C          0.68621        1.14986        4.71339
C          0.18225        2.58345        4.74510
H          0.71496        1.03553        0.05686
H          0.71084       -0.49388       -0.83924
H          2.16433        0.01391        0.03852
H         -0.52939       -0.78163        1.26963
H          0.93134       -1.76935        1.29058
H          2.11627        0.01147        2.69148
H         -0.86454        0.36976        3.33968
H          0.32039        0.60866        5.59285
H          1.78111        1.15183        4.76762
H         -0.91260        2.61750        4.74889
H          0.54089        3.09063        5.64581
H          0.53677        3.14543        3.87406