11

C          1.08646       -0.02357       -0.05807
C          0.57811        0.14365       -1.48020
C          1.02695       -0.98405       -2.35597
C          0.21505       -1.79202       -2.96846
O         -0.53439       -2.51430       -3.51372
H          0.73398       -0.96457        0.37750
H          0.72726        0.79718        0.57076
H          2.18123       -0.02018       -0.02688
H         -0.51686        0.20113       -1.46531
H          0.94555        1.09032       -1.89187
H          2.09327       -1.14002       -2.48063