20

C          1.02622       -0.05039        0.09153
C          0.54328        0.98371       -0.91250
C          1.04830        0.66043       -2.28691
C          0.21563        0.45665       -3.32108
C          0.63027        0.01737       -4.69444
C          0.08879       -1.37062       -5.05422
O         -1.33731       -1.37460       -5.19099
O         -1.88916       -1.51855       -3.84901
H          0.66404       -1.05197       -0.16676
H          0.65955        0.19447        1.09283
H          2.12014       -0.08311        0.12669
H         -0.55349        1.00939       -0.89121
H          0.89516        1.97968       -0.62528
H          2.12099        0.55713       -2.42067
H         -0.85172        0.57808       -3.15959
H          0.25796        0.75535       -5.41381
H          1.72385        0.00072       -4.77275
H          0.48715       -1.65250       -6.03561
H          0.41345       -2.14073       -4.34364
H         -2.74196       -1.08703       -4.03929