10

C          0.93824        0.06388       -0.02479
C          0.42765       -1.21306       -0.66073
C          0.89613       -2.40889        0.12283
O          0.13105       -3.22399        0.62925
H          0.59065        0.15072        1.01011
H          0.58292        0.93640       -0.58133
H          2.03297        0.08748       -0.01069
H         -0.66649       -1.21210       -0.68880
H          0.79849       -1.30741       -1.68606
H          1.98946       -2.53779        0.19840