16

C          1.02526        0.08897        0.04424
C          0.52009       -1.30576       -0.28644
C          0.99685       -2.29696        0.73286
C          0.17627       -3.02543        1.50699
C          0.64957       -4.01252        2.52002
O          0.15339       -3.62555        3.79029
H          0.67234        0.41150        1.02981
H          0.66658        0.80841       -0.69801
H          2.12022        0.12193        0.04769
H         -0.57465       -1.29142       -0.33999
H          0.88680       -1.60679       -1.27437
H          2.07451       -2.41407        0.82965
H         -0.90182       -2.91939        1.40733
H          0.26641       -5.00887        2.28338
H          1.74161       -4.06463        2.57230
H          0.50095       -2.73411        3.96410