21

C          1.00191       -0.07116       -0.02124
C          0.48261       -0.94704        1.10889
C          0.95498       -0.49817        2.49991
O          0.37195        0.76702        2.84593
O          1.26066        1.79204        2.30789
C          0.53650       -1.52349        3.57416
C          1.28879       -2.80880        3.41224
C          1.00759       -4.01498        4.26865
O          0.52805       -3.91830        2.91820
H          0.59338        0.94123        0.03193
H          0.70564       -0.49349       -0.98635
H          2.09491       -0.01214        0.00173
H         -0.61290       -0.94963        1.07379
H          0.82109       -1.97046        0.91368
H          2.04906       -0.40673        2.51960
H          0.56094        2.44653        2.11298
H          0.76194       -1.11055        4.56587
H         -0.55144       -1.67364        3.55923
H          2.28954       -2.68203        3.02291
H          1.85875       -4.65228        4.47999
H          0.25275       -3.99660        5.04175