14

C          0.99685       -0.11136        0.05414
C          0.48640        0.69457        1.24635
C          0.99380        2.15881        1.25968
O          0.46113        2.81215        0.23823
C          0.48784        2.85045        2.53867
H          0.64500        0.30903       -0.89324
H          0.63720       -1.14321        0.11242
H          2.09103       -0.13040        0.03816
H         -0.61134        0.64906        1.27072
H          0.83109        0.19332        2.16195
H          2.08643        2.10016        1.36378
H          0.85881        2.32899        3.42875
H          0.83835        3.88879        2.59733
H         -0.60855        2.86205        2.60038