19

C          1.03856        0.00488       -0.03042
C          0.53957       -0.38266        1.35375
C          0.97512        0.61887        2.43866
C          0.53407        2.07992        2.17561
O         -0.87113        2.26950        2.04096
C          1.02915        3.02832        3.25814
O          0.61516        0.16690        3.75107
O         -0.77875       -0.00823        3.77403
H          0.64485        0.97600       -0.34439
H          0.71472       -0.72913       -0.77298
H          2.13187        0.05578       -0.04781
H         -0.55078       -0.48573        1.32797
H          0.91920       -1.37913        1.61295
H          2.07313        0.61819        2.44646
H          0.97136        2.41749        1.23089
H         -1.27210        1.47166        1.64533
H          2.12290        3.03208        3.29656
H          0.68306        4.04707        3.05536
H          0.64180        2.75155        4.24336