16

C          1.06041       -0.03757       -0.05132
C          0.56676       -1.05542        0.96600
C          1.04906       -0.78697        2.40237
O          0.46964        0.41526        2.91666
O          1.27410        1.47730        2.47155
C          0.58581       -1.90705        3.34369
O          1.09142       -3.18420        2.97912
H          0.64502        0.95609        0.13475
H          0.74956       -0.33428       -1.05775
H          2.15304        0.02662       -0.03747
H         -0.52955       -1.06323        0.94447
H          0.91082       -2.04019        0.63261
H          2.14647       -0.73841        2.42878
H          0.92426       -1.69724        4.36528
H         -0.50887       -1.95486        3.38844
H          0.66913       -3.46020        2.14341