15

C          0.83403       -0.24527        0.02197
C          0.41401       -0.35344        1.47922
C          0.98380        0.75091        2.38560
C          0.67169        2.15955        1.98690
H          0.56707        2.91069        2.76232
C          1.15953        2.71001        0.70811
O          2.16996        2.30319        0.15841
H          0.35846        0.61734       -0.45372
H          0.52700       -1.11893       -0.55648
H          1.92223       -0.15553       -0.05665
H         -0.68112       -0.36002        1.53547
H          0.75481       -1.32302        1.86373
H          0.58048        0.58847        3.39515
H          2.07006        0.64265        2.47310
H          0.54500        3.52043        0.28406