23

C          0.96221        0.01681       -0.04855
C          0.46287       -0.15170        1.37400
C          0.94720        0.94901        2.33019
O          0.37855        2.21734        1.96847
O          1.21840        2.76506        0.90953
C          0.49945        0.65045        3.77344
C          1.00993       -0.68465        4.32516
C          2.50876       -0.74452        4.35348
C          3.21558       -0.92695        5.47821
H          0.55214        0.91436       -0.51535
H          0.65244       -0.83801       -0.65618
H          2.05557        0.07071       -0.06424
H         -0.63297       -0.17798        1.37007
H          0.81412       -1.13215        1.70880
H          2.04017        1.03623        2.30122
H          0.52126        3.30383        0.49286
H          0.82283        1.46948        4.43084
H         -0.59795        0.66328        3.82161
H          0.59681       -0.83293        5.32982
H          0.63008       -1.52338        3.73196
H          3.04853       -0.62452        3.41729
H          4.29873       -0.93717        5.45343
H          2.72188       -1.06338        6.43271