21

C          0.98319        0.14273        0.17138
C          0.43081        0.66305       -1.14947
C          0.87846       -0.12987       -2.39212
C          0.23942       -1.51951       -2.51418
C          1.03389       -2.76995       -2.98122
C          0.16284       -3.47285       -1.92638
O          0.01341       -2.20396       -1.23321
O          0.54661        0.63603       -3.58236
O         -0.90660        0.82461       -3.57352
H          0.62028       -0.85445        0.42072
H          0.66358        0.79062        0.99291
H          2.07599        0.11071        0.15607
H         -0.66369        0.69343       -1.09321
H          0.75091        1.70819       -1.26173
H          1.97410       -0.19960       -2.38787
H         -0.72539       -1.45032       -3.03187
H          0.86847       -3.09219       -4.01082
H          2.10271       -2.79115       -2.74442
H          0.64580       -4.23068       -1.30730
H         -0.81697       -3.82889       -2.26359
H         -0.98568        1.14755       -4.49548