14

C          0.98741       -0.00614       -0.10336
C          0.52967       -1.45836       -0.08933
C          0.97112       -2.20614        1.14850
C          0.08682       -2.77206        1.98724
C          2.38269       -2.29879        1.44318
H          3.00556       -1.42516        1.27821
H          2.72275       -2.98471        2.21307
H          0.63728        0.52044        0.79024
H          0.59332        0.51047       -0.98364
H          2.07854        0.06889       -0.14207
H         -0.56623       -1.46789       -0.16396
H          0.89668       -1.97180       -0.98746
H          0.40663       -3.29999        2.87926
H         -0.98060       -2.70364        1.81174