16

C          1.07734       -0.10188       -0.02609
C          0.57974        0.52243        1.26998
C          1.09002        1.96010        1.51002
O          0.53106        2.84544        0.50710
O          1.37488        2.76082       -0.67928
C          0.61594        2.52989        2.89676
O          1.14084        1.81115        3.88458
H          0.65751        0.39810       -0.90270
H          0.77212       -1.15189       -0.07662
H          2.16968       -0.06303       -0.08495
H         -0.51656        0.51954        1.25612
H          0.90031       -0.13169        2.08879
H          2.18699        2.00075        1.44971
H          0.64945        2.91363       -1.31039
H          0.87341        3.60129        2.86209
H         -0.48202        2.59761        2.82085