17

C          1.00249       -0.00165       -0.12257
C          0.50580       -0.06341        1.31265
C          1.00465        1.09636        2.19460
O          0.43795        2.34138        1.75919
O          1.17882        2.76528        0.64492
C          0.52960        0.92988        3.63854
C          1.04963       -0.32580        4.27903
O          1.76747       -0.32368        5.27654
H          0.59521        0.85958       -0.65632
H          0.68494       -0.89329       -0.67021
H          2.09593        0.04710       -0.14674
H         -0.59039       -0.07716        1.30851
H          0.84608       -1.02045        1.72024
H          2.10228        1.15006        2.17785
H          0.85347        1.78917        4.23856
H         -0.56564        0.91687        3.68629
H          0.72281       -1.27859        3.83223