17

C          0.91763        0.08287       -0.00580
C          0.45559        0.46551       -1.40981
C          0.93092       -0.54922       -2.48320
C          0.35883       -1.97294       -2.23030
C         -1.16505       -2.06828       -2.14113
O          0.49663       -0.12245       -3.66290
H          0.51450       -0.88425        0.30787
H          0.57782        0.82606        0.72117
H          2.00987        0.03126        0.04033
H         -0.63758        0.56978       -1.40452
H          0.84983        1.46634       -1.63503
H          2.01577       -0.64867       -2.33865
H          0.71491       -2.66802       -3.00300
H          0.77461       -2.35782       -1.28933
H         -1.63635       -1.78497       -3.08728
H         -1.46572       -3.09453       -1.91174
H         -1.56743       -1.42819       -1.35074