16

C          1.08824       -0.03663       -0.13544
C          0.71591        1.13244        0.73102
C          1.31495        2.40804        0.14869
C          0.25283        3.26931       -0.53720
C         -1.29761        2.93648       -0.88776
O         -2.04954        3.64630       -1.61656
O         -0.22665        3.99296        0.44759
H          0.69646        0.10446       -1.14752
H          0.67212       -0.95758        0.27543
H          2.17654       -0.12012       -0.18082
H         -0.37521        1.17652        0.83513
H          1.06263        0.98792        1.76058
H          2.11887        2.74071        0.83213
H          2.02405        2.35819       -0.69445
H          0.31306        2.69078       -1.48275
H         -1.63966        1.92484       -0.64746