24

C          0.98264       -0.00953       -0.02827
C          0.34824       -1.38417        0.03842
C          0.96049       -2.27045        1.10648
O          0.22702       -2.88672        1.87891
C          2.47041       -2.38801        1.24186
C          3.17487       -3.08974        0.08137
O          3.17626       -2.23291       -1.07120
O          2.15522       -2.72398       -1.97465
C          4.66944       -3.30685        0.37373
C          4.95098       -4.14245        1.60753
H          0.72565        0.55856        0.87078
H          0.62160        0.53977       -0.90224
H          2.07367       -0.04336       -0.09402
H         -0.72057       -1.27687        0.25282
H          0.37201       -1.89540       -0.92032
H          2.89640       -1.39680        1.42404
H          2.62078       -2.95809        2.16576
H          2.70122       -4.05566       -0.14099
H          1.84963       -1.84300       -2.26545
H          5.13653       -3.78245       -0.49932
H          5.16741       -2.33236        0.46937
H          4.49022       -5.13001        1.51802
H          6.02938       -4.27042        1.73902
H          4.57476       -3.66125        2.51403