15

C          0.91688        0.05244        0.02664
C          0.43472       -0.84413        1.15035
C          0.89850       -0.33557        2.50026
O          0.08427        0.04813        3.34536
C          2.39780       -0.29193        2.75948
O          3.01330       -1.55832        2.57221
O          2.44051       -2.43065        3.58858
H          0.57517        1.08183        0.17742
H          0.53837       -0.30119       -0.93661
H          2.00968        0.06935       -0.03014
H         -0.66094       -0.87265        1.15222
H          0.78567       -1.87176        1.01260
H          2.85534        0.42128        2.06677
H          2.59117        0.07211        3.77388
H          2.93788       -3.23161        3.34385