15

C          0.97401        0.08592        0.06303
C          0.49634        0.39872       -1.34083
C          0.96391       -0.64195       -2.34077
O          0.14553       -1.29865       -2.99256
C          2.46094       -0.84673       -2.53806
C          3.12799        0.34437       -3.13693
H          4.20705        0.43217       -3.06175
H          2.63219        0.89527       -3.92979
H          0.63069       -0.90491        0.37819
H          0.59324        0.82634        0.77266
H          2.06615        0.09672        0.12414
H         -0.60036        0.41698       -1.35416
H          0.83776        1.38749       -1.66261
H          2.92088       -1.12020       -1.58440
H          2.60262       -1.69249       -3.21826