23

C          0.91418       -0.15423       -0.04608
C          0.41407       -0.11839        1.39328
C          0.80381        1.18253        2.11047
C          0.35173        2.50326        1.43653
O         -1.07232        2.68751        1.41488
O         -1.61880        1.78910        0.41127
C          0.91977        3.74090        2.15168
C          2.44029        3.79259        2.15113
O          0.47829        1.14214        3.50633
O         -0.91827        1.04052        3.62232
H          0.52657        0.67793       -0.63977
H          0.59720       -1.07641       -0.53926
H          2.00778       -0.10416       -0.07644
H         -0.66715       -0.28210        1.42601
H          0.84835       -0.96520        1.94083
H          1.89986        1.17640        2.09769
H          0.71202        2.54079        0.40224
H         -2.36702        1.47374        0.96068
H          0.53426        4.64043        1.65460
H          0.54201        3.79033        3.17983
H          2.82983        3.75742        1.12854
H          2.78823        4.71740        2.61937
H          2.87712        2.96269        2.71365