15

C          0.91290       -0.03892       -0.05108
C          0.44176       -0.74495        1.21232
C          0.93128       -0.06498        2.47648
C          0.05152        0.46423        3.34974
C          2.44146        0.03562        2.71785
O          2.90441       -1.19975        2.81527
H          0.56197        0.99809       -0.07352
H          0.52427       -0.55003       -0.93715
H          2.00468       -0.03322       -0.12625
H         -0.65568       -0.77461        1.19704
H          0.76510       -1.79242        1.19573
H          0.40160        0.95578        4.24945
H         -1.01593        0.39993        3.18682
H          2.82054        0.68693        1.91427
H          2.58304        0.70060        3.58521