18

C          1.07564        0.04347        0.07687
C          0.53699        1.37700       -0.41882
C          1.01693        1.77817       -1.82103
C          0.56559        0.90341       -2.96399
C          1.54974       -0.05523       -3.61118
O          0.51359       -0.51434       -2.74180
O          0.62451        3.14828       -2.08602
O         -0.83686        3.19038       -2.06661
H          0.68699       -0.79775       -0.49863
H          0.76484       -0.12782        1.11139
H          2.16841        0.01825        0.03298
H         -0.55758        1.36346       -0.37428
H          0.85276        2.15680        0.28811
H          2.11340        1.80619       -1.80846
H         -0.23367        1.32154       -3.55509
H          1.44277       -0.28542       -4.66182
H          2.56212       -0.11826       -3.23476
H         -0.92322        4.11205       -2.37410