24

C          0.80065       -0.20224        0.36639
C          0.25635        1.19930        0.61899
C          0.59782        2.37153       -0.31950
C          0.52657        2.22800       -1.80901
H          0.52090        3.15768       -2.37726
C          1.08346        1.04759       -2.53938
C          2.61791        0.89957       -2.45994
O          3.13358        0.88114       -1.12325
O          3.70709        2.18501       -0.84548
C          3.01828       -0.46154       -3.01427
H          0.38496       -0.66415       -0.52796
H          0.51323       -0.86772        1.18494
H          1.88833       -0.23768        0.32723
H         -0.83307        1.12434        0.68705
H          0.61080        1.49199        1.61583
H         -0.06497        3.20531       -0.04754
H          1.58213        2.76273       -0.06662
H          0.55975        0.14479       -2.22846
H          0.79819        1.14094       -3.59633
H          3.09205        1.69796       -3.03843
H          3.45850        2.19153        0.10868
H          2.64656       -0.61760       -4.02859
H          4.10877       -0.55677       -3.00623
H          2.63656       -1.26401       -2.36920