14

C          0.95130        0.06733        0.02086
C          0.55231       -0.33180        1.43273
C          1.07218        0.63135        2.48062
O          0.30238        1.28744        3.18932
C          2.53858        0.79709        2.68822
C          3.48140        0.08608        2.05659
H          0.57481        1.06538       -0.22033
H          0.55687       -0.65033       -0.70310
H          2.03249        0.10216       -0.12773
H         -0.54279       -0.34531        1.49781
H          0.89186       -1.34271        1.68371
H          2.81118        1.56612        3.40474
H          4.53385        0.29016        2.21656
H          3.25298       -0.70652        1.35357