19

C          0.97510        0.15196        0.19625
C          0.52372        0.47355       -1.22374
C          1.04645       -0.47972       -2.32973
O          0.47590       -1.79395       -2.19619
O          1.11993       -2.45835       -1.14107
C          0.51829       -0.00080       -3.70554
O          0.97683        1.29191       -4.08066
C          2.58351       -0.50433       -2.38395
H          0.57616       -0.80427        0.54206
H          0.61313        0.91984        0.88679
H          2.06532        0.13065        0.27575
H         -0.57381        0.47312       -1.23494
H          0.84612        1.49966       -1.43601
H          0.83771       -0.69977       -4.48932
H         -0.57837       -0.00715       -3.73069
H          0.60442        1.94781       -3.46313
H          2.99081        0.49426       -2.57551
H          3.02584       -0.86702       -1.45131
H          2.93420       -1.18171       -3.16995