18

C          1.12760       -0.02880       -0.07046
C          0.74853       -0.36920        1.34235
C          1.32074        0.69811        2.24360
C          0.24102        1.68233        2.75208
C         -1.22309        1.82798        2.33498
C         -1.94293        2.81863        2.95456
O          0.23854        1.46955        4.05349
H          0.73521        0.95928       -0.33395
H          0.71784       -0.77060       -0.75379
H          2.21786       -0.00657       -0.16069
H         -0.33801       -0.45353        1.43600
H          1.12296       -1.35745        1.63557
H          2.07237        0.20737        2.89524
H          2.05544        1.40630        1.82389
H          0.58916        2.58726        2.22640
H         -1.69762        1.25350        1.55425
H         -2.98738        2.98741        2.81909
H         -1.40543        3.40512        3.69501