24

C          1.13077       -0.10267       -0.20136
C          0.76236       -0.97214        0.98820
C          1.05976       -0.15362        2.26954
C         -0.05803        0.88660        2.39629
C         -1.42279        0.16415        2.43630
C         -1.64464       -0.27642        3.87170
O         -2.36469        0.34244        4.61623
C         -0.85308       -1.51946        4.34610
O         -0.23597       -2.29244        3.32289
O         -1.09696       -3.40858        3.04084
H          0.72445        0.90947       -0.11084
H          0.71786       -0.50322       -1.12754
H          2.21485       -0.02324       -0.25876
H         -0.28472       -1.22366        0.81432
H          1.25449       -1.94710        0.97112
H          2.10382        0.17062        2.20104
H          1.10588       -0.61980        3.25569
H          0.04693        1.61899        1.59129
H          0.00978        1.49600        3.30488
H         -2.20376        0.79434        2.00529
H         -1.57685       -0.77497        1.89838
H         -0.03751       -1.23265        5.02159
H         -1.55216       -2.14394        4.89816
H         -0.89355       -3.89038        3.86168