20

C          0.96522        0.09759       -0.15195
C          0.48234       -1.21748       -0.74778
C          0.83344       -2.43978        0.11833
C          0.31925       -2.38756        1.58697
O         -1.10655       -2.39512        1.72419
O         -1.60733       -1.08721        1.33758
C          0.76998       -3.56806        2.39157
H          0.71846       -3.49492        3.47206
H          0.71305       -4.55563        1.94851
O          0.45747       -3.65133       -0.57305
O         -0.99251       -3.65216       -0.70544
H          0.57578        0.26431        0.85562
H          0.63090        0.93838       -0.76616
H          2.05786        0.12038       -0.09814
H         -0.59665       -1.16965       -0.92773
H          0.92531       -1.34358       -1.74448
H          1.93172       -2.48536        0.16169
H          0.72247       -1.49904        2.08767
H         -2.37464       -1.42526        0.83709
H         -1.07881       -4.60876       -0.88881