22

C          1.38164       -0.17077        0.06295
C          0.93819        1.20860        0.45574
C          1.35761        2.17276       -0.62137
C          0.19355        2.65713       -1.51774
C         -1.29129        2.20756       -1.78942
O         -1.93170        2.71160       -2.76573
C         -2.00084        1.09277       -1.07363
C         -1.62460       -0.28907       -1.57169
O          0.09764        3.94186       -1.22840
H          1.22924       -0.34150       -1.00462
H          0.82786       -0.91593        0.63496
H          2.45295       -0.27663        0.22922
H         -0.13099        1.25634        0.62950
H          1.34898        1.49153        1.43202
H          2.13183        2.81813       -0.15382
H          2.07247        1.84017       -1.39316
H          0.54226        2.19863       -2.46088
H         -1.91152        1.20750        0.00347
H         -3.07526        1.22507       -1.26756
H         -0.56091       -0.47430       -1.53897
H         -2.10809       -1.05676       -0.96080
H         -1.90584       -0.43666       -2.61880