18

C          1.03406        0.06948       -0.02573
C          0.53594       -0.59296       -1.29972
C          1.02485       -2.03773       -1.49571
O          0.47483       -2.89143       -0.47410
O          1.33774       -2.77964        0.69239
C          0.52577       -2.62451       -2.83589
C          0.86856       -1.85800       -4.07550
H          0.82780       -2.36195       -5.03520
H          0.82141       -0.77540       -4.09665
H          0.61477       -0.40151        0.86637
H          0.72954        1.12090       -0.01339
H          2.12655        0.03276        0.03013
H         -0.56012       -0.57489       -1.29784
H          0.87532        0.03404       -2.12951
H          2.12166       -2.08589       -1.46789
H          0.63114       -2.91854        1.35364
H          0.91787       -3.64485       -2.93868
H         -0.56496       -2.73673       -2.79388