18

C          1.28844        0.26782       -0.16345
C          1.09291       -1.24057       -0.15376
C          1.84244       -1.85489        1.05554
C          0.99562       -2.35107        2.21588
O          1.38757       -3.14717        3.01283
C         -0.41050       -1.85206        2.22265
O         -0.65966       -3.14680        1.63944
O         -1.55512       -3.12219        0.52127
H          0.85743        0.72319        0.73530
H          0.80332        0.72532       -1.03007
H          2.35537        0.49957       -0.18878
H          0.01209       -1.41806       -0.19059
H          1.45907       -1.67800       -1.08811
H          2.43942       -2.71181        0.72965
H          2.48615       -1.11785        1.53912
H         -0.46568       -0.89290        1.68910
H         -0.63939       -1.73335        3.28592
H         -1.25660       -3.99522        0.17627