22

C          0.93173        0.00433       -0.16187
C          0.46439       -1.41847       -0.43860
C          0.89619       -2.40467        0.66015
C          0.30475       -2.11974        2.06433
C         -1.24562       -2.03711        2.16363
O         -1.74277       -3.26277        2.10477
C         -1.63822       -1.45220        3.53391
O          0.75212       -3.78065        0.26018
O         -0.59828       -3.96402       -0.26860
H          0.52337        0.39283        0.77576
H          0.60787        0.67395       -0.96394
H          2.02422        0.04760       -0.10338
H         -0.62410       -1.42297       -0.56349
H          0.86976       -1.75020       -1.40201
H          1.98255       -2.29215        0.76937
H          0.69894       -2.86378        2.77194
H          0.71306       -1.15536        2.39822
H         -1.57089       -1.27969        1.43975
H         -1.22279       -0.44342        3.64929
H         -2.72797       -1.36350        3.63136
H         -1.27059       -2.05559        4.37343
H         -1.07726       -3.88970        0.60558