21

C          0.85472        0.48901       -0.16033
C          0.30900       -0.08838       -1.46048
C          0.65408       -1.52337       -1.89708
C          0.57767       -2.67131       -0.93788
H          0.56592       -3.66346       -1.38893
C          1.13508       -2.62258        0.44964
C          2.66372       -2.51663        0.52916
O          3.22138       -1.37258       -0.11900
O          3.76209       -1.81910       -1.39590
H          0.43310        0.01252        0.72367
H          0.57311        1.54192       -0.07154
H          1.94238        0.46574       -0.10942
H         -0.78064        0.00929       -1.43665
H          0.66238        0.57100       -2.26382
H         -0.00722       -1.76891       -2.74062
H          1.64028       -1.53631       -2.35936
H          0.64120       -1.84277        1.02555
H          0.83364       -3.54307        0.96589
H          2.92931       -2.40528        1.58585
H          3.13260       -3.43220        0.16298
H          3.47959       -1.02522       -1.90742