23

C          1.20974        0.53275       -0.67763
C          0.49056       -0.78468       -1.20174
C          0.68738       -2.27584       -0.63116
C          0.54788       -2.76295        0.81251
H          0.60480       -3.84274        0.96946
C          1.03984       -1.97317        2.00948
C          2.56442       -1.75355        1.95729
O          3.05931       -1.18846        0.73768
O          3.62377       -2.26647       -0.07029
O          0.33280       -0.74304        2.23226
O         -0.50663       -0.49495        1.07882
H          0.98083        0.92770        0.32333
H          0.92709        1.38595       -1.31579
H          2.29832        0.46475       -0.69757
H         -0.59562       -0.60378       -1.22843
H          0.76338       -0.84479       -2.26435
H          0.03360       -2.94082       -1.22373
H          1.65212       -2.63479       -0.96386
H          0.82604       -2.54872        2.92455
H          2.83330       -1.02072        2.72146
H          3.08364       -2.69380        2.16930
H          3.33975       -1.90436       -0.93491
H         -0.76404        0.37515        1.23405