17

C          1.04808        0.02150        0.27653
C          0.52976        1.32011       -0.32291
C          1.06369        1.66332       -1.71955
C          0.73479        0.73417       -2.85224
H          0.66697        1.18295       -3.84004
C          1.06966       -0.71226       -2.82253
O          2.46278       -0.84774       -2.63003
H          0.53810       -0.84678       -0.14093
H          0.84472       -0.01467        1.35023
H          2.12584       -0.08845        0.12367
H         -0.56624        1.30750       -0.33123
H          0.82690        2.13414        0.35092
H          0.65878        2.64992       -1.98649
H          2.15143        1.79285       -1.67834
H          0.53443       -1.24818       -2.04049
H          0.79489       -1.20042       -3.76057
H          2.89281       -0.36126       -3.35658