22

C          1.00361       -0.13173        0.02316
C          0.59577        1.12119        0.79419
C          1.10768        2.41859        0.11455
C          0.44436        2.64482       -1.28001
C         -1.10229        2.61756       -1.35655
O         -1.70226        3.81109       -0.82878
O         -1.90479        3.58916        0.60083
C         -1.54556        2.56781       -2.81560
O          0.80762        3.43932        0.90687
H          0.59086       -0.14034       -0.98968
H          0.63815       -1.02759        0.53353
H          2.09362       -0.20124       -0.04955
H         -0.49534        1.12545        0.90793
H          0.99851        1.03729        1.81309
H          2.16954        2.23305       -0.10859
H          0.81329        3.58706       -1.71002
H          0.82510        1.85465       -1.94407
H         -1.51682        1.73208       -0.86195
H         -0.95111        3.73176        0.86339
H         -1.15864        1.68251       -3.32827
H         -2.63944        2.55505       -2.87319
H         -1.21177        3.46387       -3.35014