14

C          0.95034       -0.05090       -0.03786
C          0.44749        1.38442       -0.13514
C          0.93007        2.08356       -1.40979
O          0.46990        1.40651       -2.56721
C          0.38950        3.46023       -1.53686
H          0.86941        4.14111       -2.23103
H         -0.65360        3.64363       -1.30449
H          0.57898       -0.66123       -0.86667
H          0.60328       -0.51492        0.89019
H          2.04431       -0.08199       -0.04984
H         -0.64915        1.36324       -0.10686
H          0.78484        1.94064        0.74864
H          2.02530        2.11989       -1.43195
H          0.87521        0.52299       -2.57406