19

C          0.94961       -0.07177        0.04638
C          0.43011        0.13038       -1.36117
C          1.03001       -0.80149       -2.41139
O          0.24160       -1.37321       -3.18959
C          2.55963       -0.94422       -2.60875
C          3.22047        0.39172       -3.04778
C          3.18797        1.56699       -2.07129
O          3.18685       -1.41971       -1.54549
H          0.68990       -1.07554        0.39477
H          0.51714        0.66243        0.73093
H          2.03216        0.03999        0.12338
H         -0.65420       -0.03471       -1.34993
H          0.52237        1.16610       -1.68826
H          2.61827       -1.56386       -3.52034
H          4.27535        0.20546       -3.29781
H          2.74263        0.71935       -3.98049
H          3.56906        1.29541       -1.08372
H          3.78644        2.39873       -2.45129
H          2.18900        1.97891       -1.95871