24

C          0.98039       -0.00698       -0.20290
C          0.46918       -0.91267        0.90605
C          0.94953       -0.51259        2.31064
C          0.38315        0.82230        2.79456
C          1.11319        1.60346        3.92296
C          0.57846        2.81793        3.12921
O          0.65387        1.98782        1.91896
C          1.38904        4.08604        3.01487
O          0.57878       -1.54893        3.25646
O         -0.88187       -1.63727        3.24596
H          0.56550        0.99942       -0.12850
H          0.67374       -0.38989       -1.18004
H          2.07206        0.06171       -0.18166
H         -0.62613       -0.94051        0.86585
H          0.79923       -1.93959        0.69841
H          2.04632       -0.49087        2.31588
H         -0.70278        0.74978        2.94780
H          0.72308        1.48098        4.93306
H          2.20524        1.50897        3.92060
H         -0.47221        3.06162        3.34415
H          0.94703        4.75701        2.26941
H          1.38697        4.61764        3.97205
H          2.42671        3.89453        2.72943
H         -0.95725       -2.33192        3.93251