12

C          0.95947       -0.06051       -0.04891
C          0.49028       -1.28247       -0.81365
C          0.91930       -2.57733       -0.15884
O          0.11771       -3.47215        0.11466
C          2.34452       -2.81016        0.11775
H          2.99620       -1.98367        0.35446
H          2.64930       -3.82613        0.32894
H          0.61677       -0.10244        0.98989
H          0.57142        0.85385       -0.50692
H          2.05093        0.01164       -0.04010
H         -0.60598       -1.27667       -0.85591
H          0.85140       -1.26388       -1.84822