20

C          1.04376        0.06483        0.01035
C          0.54815        0.31373       -1.40312
C          1.04462       -0.72320       -2.42487
O          0.49282       -2.01991       -2.13324
O          1.31689       -2.61230       -1.08802
C          0.57225       -0.36194       -3.84902
C          1.06985        0.97187       -4.33409
C          1.85977        1.13177       -5.40582
H          0.63019       -0.85651        0.42601
H          0.73242        0.88310        0.66581
H          2.13676        0.00708        0.02813
H         -0.54814        0.32749       -1.39740
H          0.88814        1.31540       -1.68453
H          2.14164       -0.78150       -2.41927
H          0.61506       -3.17388       -0.70919
H          0.87985       -1.16066       -4.53730
H         -0.52560       -0.36482       -3.88190
H          0.76692        1.85781       -3.78205
H          2.20097        2.11936       -5.69605
H          2.17679        0.28604       -6.00446