22

C          0.61763       -0.33305       -0.20325
C          0.21070       -0.95026        1.12769
C          0.65567       -0.35523        2.47480
C          0.59409        1.11761        2.72771
H          0.51812        1.42597        3.77331
C          1.13107        2.14762        1.79862
C          2.65617        2.19387        1.65166
C          3.44566        0.90850        1.43254
H          0.23528        0.67508       -0.35053
H          0.18970       -0.91967       -1.02168
H          1.69301       -0.34516       -0.36697
H         -0.88173       -1.01094        1.13548
H          0.57918       -1.98402        1.11508
H          0.02865       -0.82710        3.24430
H          1.65488       -0.71611        2.72731
H          0.63235        2.10059        0.82841
H          0.80900        3.12786        2.17693
H          2.88662        2.87024        0.82476
H          3.05411        2.65683        2.56387
H          3.23375        0.44443        0.46848
H          4.51533        1.13230        1.42400
H          3.30870        0.17613        2.22364