14

C          1.02078        0.14245        0.00203
C          0.51366       -0.62361       -1.20814
C          0.99464       -2.07227       -1.23863
C          0.48268       -2.85045       -0.02884
O         -0.28161       -3.81202       -0.10237
O          0.55890       -2.65683       -2.45981
H          0.65583       -0.29620        0.93502
H          0.67158        1.17811       -0.02825
H          2.11483        0.14513        0.02772
H         -0.58292       -0.59397       -1.23237
H          0.84566       -0.11583       -2.12313
H          2.08890       -2.11450       -1.22424
H          0.83949       -2.49659        0.95254
H         -0.39976       -2.81599       -2.36901