16

C          0.97104       -0.05651       -0.09771
C          0.45092        1.03944        0.82203
C          0.93981        2.45519        0.43655
C          0.44045        2.79081       -0.97214
O         -0.28079        3.72911       -1.30803
C          0.48385        3.54196        1.45935
O          1.02779        3.26703        2.63776
H          0.60605        0.06520       -1.12042
H          0.62822       -1.03424        0.25361
H          2.06534       -0.06149       -0.11538
H         -0.64511        1.01449        0.83269
H          0.78582        0.78884        1.83618
H          2.03845        2.45170        0.36793
H          0.80206        2.11104       -1.76019
H          0.75435        4.50525        0.99709
H         -0.61529        3.57532        1.37769