22

C          1.06052       -0.21275        0.01740
C          0.55443        0.19859        1.39770
C          1.00171        1.61847        1.72353
C          0.39912        2.59394        0.71599
C         -0.80024        3.45504        1.18543
C         -1.38465        3.29320        2.63680
O         -1.20661        4.37962        3.56031
O          0.23148        4.56632        3.70859
O         -0.44074        4.71989        0.94622
H          0.68700        0.42831       -0.78607
H          0.73941       -1.22361       -0.23149
H          2.15195       -0.14776       -0.01513
H         -0.54065        0.14195        1.43753
H          0.94327       -0.49041        2.15477
H          0.75605        1.87518        2.75392
H          2.09763        1.67446        1.68492
H          1.22367        3.12599        0.21309
H         -0.02879        2.05276       -0.13991
H         -1.61015        2.99549        0.60523
H         -2.47368        3.21720        2.51509
H         -1.11761        2.36141        3.14607
H          0.35583        4.91110        2.78845