22

C          1.17483        0.19534        0.14886
C          0.76603        0.56380       -1.25450
C          1.11230       -0.60724       -2.18793
C          0.11838       -1.75037       -1.90765
C         -1.27742       -1.22069       -2.23744
C         -1.60752       -1.66255       -3.64043
O         -2.60126       -2.38435       -3.84532
C         -0.69361       -1.09835       -4.76561
O          0.22632       -2.00891       -5.05719
H          0.74600       -0.76014        0.46309
H          0.80930        0.93702        0.85588
H          2.26002        0.10730        0.18672
H         -0.30158        0.79930       -1.21045
H          1.22263        1.49118       -1.60905
H          1.07723       -0.22653       -3.20658
H          2.15211       -0.92849       -2.07082
H          0.28120       -2.07147       -0.87431
H          0.23816       -2.71246       -2.42389
H         -2.00695       -1.48319       -1.46558
H         -1.36522       -0.13513       -2.34879
H         -0.36907       -0.10309       -4.41423
H         -1.38983       -0.75056       -5.53296