26

C          1.06384       -0.02424        0.20152
C          0.63352        1.40200        0.50794
C          1.09660        2.37075       -0.58085
C          0.52487        2.02714       -1.96210
C         -1.01192        2.04916       -1.99811
C         -1.57843        3.45915       -1.76434
C         -1.07933        4.52538       -2.75103
O         -1.48555        4.33715       -4.10797
O         -0.71185        3.23314       -4.65328
O         -3.00377        3.47131       -1.63618
O         -3.54902        2.95593       -2.82226
H          0.64355       -0.38436       -0.74264
H          0.72286       -0.70571        0.98342
H          2.15430       -0.08303        0.13094
H         -0.45505        1.44299        0.62529
H          1.05009        1.71328        1.47157
H          0.82134        3.39364       -0.29759
H          2.19179        2.36621       -0.63450
H          0.94570        2.72120       -2.69608
H          0.88016        1.04442       -2.28845
H         -1.36264        1.63693       -2.94930
H         -1.43218        1.35989       -1.25591
H         -1.24081        3.78004       -0.77154
H         -1.48848        5.49484       -2.44991
H          0.01065        4.62927       -2.71196
H         -1.47880        2.75897       -5.04258