15

C          1.05638        0.01703       -0.01489
C          0.59912       -1.12464       -0.91233
C          1.00041       -2.50163       -0.37526
C          0.45984       -2.83661        1.01556
O         -0.95442       -3.01085        0.99787
O         -1.52105       -1.73392        1.14749
H          0.65154       -0.06634        0.99688
H          0.72017        0.97638       -0.41880
H          2.14816        0.03618        0.05681
H         -0.48572       -1.07333       -1.05668
H          1.04214       -0.99015       -1.90579
H          0.63955       -3.25931       -1.08416
H          2.09425       -2.57020       -0.35864
H          0.88796       -3.79069        1.33372
H          0.76099       -2.10216        1.77571