19

C          1.08927        0.00206       -0.07407
C          0.65221       -1.35043       -0.61362
C          1.13205       -2.49976        0.27891
C          0.52478       -2.47617        1.68831
C         -1.01206       -2.50218        1.73007
O         -1.53994       -3.75518        1.28344
O         -1.50818       -3.75213       -0.12217
O         -1.43251       -2.26078        3.08079
H          0.68643        0.18747        0.92619
H          0.73454        0.80660       -0.72345
H          2.18080        0.05467       -0.01870
H         -0.43727       -1.36215       -0.72128
H          1.05319       -1.48558       -1.62433
H          0.91554       -3.45829       -0.20552
H          2.22553       -2.45731        0.36036
H          0.91584       -3.33461        2.24899
H          0.88866       -1.59286        2.22849
H         -1.44639       -1.68269        1.14612
H         -1.00721       -2.94732        3.62780