19

C          1.23400       -0.28483       -0.15635
C          0.73755       -0.40415        1.27155
C          0.97675        0.93639        1.97923
C          0.24899        2.09081        1.22438
C         -0.96855        2.66462        1.91631
O         -1.33757        3.81042        1.73078
C         -1.82135        1.59676        2.60435
O         -1.54137        1.72676        3.88967
H          0.90023        0.62903       -0.65157
H          0.86755       -1.10769       -0.76645
H          2.32387       -0.23965       -0.15288
H         -0.32381       -0.67688        1.27907
H          1.24418       -1.22840        1.79088
H          0.68896        0.81754        3.02975
H          2.05607        1.12871        2.01802
H          0.93805        2.86931        0.88175
H         -0.26027        1.71682        0.32905
H         -1.57911        0.65530        2.09067
H         -2.81697        1.75578        2.17543