23

C          0.93206        0.05494        0.09101
C          0.49506        0.66319       -1.23282
C          0.96792       -0.17225       -2.42490
C          0.41760       -1.60380       -2.41828
C         -1.11357       -1.66425       -2.46710
C         -1.70086       -1.08165       -3.76356
C         -1.21996       -1.78422       -5.06262
O         -1.69625       -3.02640       -5.05369
H          0.51606       -0.94672        0.23575
H          0.59085        0.66907        0.92757
H          2.02306       -0.02020        0.13287
H         -0.59489        0.77480       -1.24593
H          0.90257        1.67641       -1.31933
H          0.68774        0.33677       -3.35465
H          2.06364       -0.21271       -2.42815
H          0.84849       -2.15727       -3.25908
H          0.76779       -2.13873       -1.52914
H         -1.43496       -2.70482       -2.34287
H         -1.54393       -1.13171       -1.61096
H         -2.79703       -1.08663       -3.69839
H         -1.42709       -0.01896       -3.83201
H         -1.54465       -1.12311       -5.87631
H         -0.13260       -1.63911       -5.10914