24

C          0.98828       -0.05915       -0.00436
C          0.54850        0.94389        1.05377
C          1.00695        2.35141        0.69169
C          0.39881        2.75032       -0.62090
C         -1.09969        2.70645       -0.49494
C         -1.59314        4.12435       -0.38547
C         -0.94584        5.48443       -0.20918
O         -1.66311        6.52544       -0.18358
O         -2.25907        4.32029       -1.61397
O         -1.13082        4.47912       -2.56932
H          0.58334        0.16299       -0.99836
H          0.63768       -1.05876        0.25091
H          2.07846       -0.05897       -0.08646
H         -0.54238        0.90191        1.15204
H          0.94597        0.67926        2.03383
H          0.69817        3.07175        1.46026
H          2.09481        2.40859        0.60701
H          0.77066        3.73385       -0.91914
H          0.72284        2.12878       -1.46426
H         -1.44369        1.84566       -1.10844
H         -1.70496        2.30257        0.33081
H         -2.06027        4.10815        0.61911
H          0.12813        5.57970       -0.06996
H         -1.66499        4.63214       -3.36194