21

C          1.07420       -0.11073        0.06267
C          0.57703        1.25336        0.52397
C          1.07364        2.39302       -0.36948
C          0.58784        2.24670       -1.78069
C         -0.20731        3.13178       -2.39975
C         -0.72881        2.91748       -3.78786
C         -2.24822        2.90455       -3.79024
H          0.70497       -0.35844       -0.93715
H          0.72522       -0.89562        0.73863
H          2.16822       -0.13293        0.03760
H         -0.51968        1.25128        0.55514
H          0.92363        1.42948        1.54924
H          0.74103        3.34780        0.05590
H          2.16960        2.41250       -0.37335
H          0.89237        1.35176       -2.31798
H         -0.51216        4.03883       -1.88426
H         -0.35945        3.71935       -4.43540
H         -0.36333        1.97089       -4.20451
H         -2.65026        3.85415       -3.42148
H         -2.62321        2.74656       -4.80567
H         -2.63746        2.10104       -3.15490