21

C          1.19751        0.03537       -0.00293
C          0.71964        0.90586       -1.15254
C          0.99043        0.26993       -2.51340
C          0.40389       -1.13048       -2.70225
C         -1.11909       -1.20346       -2.73930
O         -1.68336       -1.58982       -3.76834
C         -1.95628       -0.83297       -1.53574
C         -1.63506       -1.59448       -0.29008
O         -1.41642       -1.05869        0.79810
H          0.87858       -1.00443       -0.09595
H          0.80245        0.41010        0.94486
H          2.28700        0.01889        0.04040
H         -0.33739        1.13375       -1.04247
H          1.19801        1.88831       -1.09202
H          0.61755        0.93105       -3.30516
H          2.07975        0.21432       -2.64328
H          0.76472       -1.50699       -3.67109
H          0.78509       -1.85161       -1.97385
H         -1.94074        0.24131       -1.36171
H         -3.00317       -1.05185       -1.76468
H         -1.65608       -2.69094       -0.37119