17

C          1.01540       -0.03648       -0.10139
C          0.51599        0.18177        1.31902
C          0.93981        1.54489        1.88963
C          0.43815        2.76363        1.06949
O         -0.88224        2.83186        1.16553
C          0.99910        4.05695        1.67948
H          0.62723        0.72112       -0.78828
H          0.68801       -1.01003       -0.47582
H          2.10881       -0.00120       -0.13529
H         -0.57559        0.08448        1.34285
H          0.91156       -0.61269        1.96314
H          0.60860        1.60885        2.93646
H          2.03887        1.57111        1.92478
H          0.91497        2.69594        0.08411
H          2.09536        4.03584        1.66986
H          0.68514        4.93369        1.09868
H          0.67984        4.20480        2.71846