18

C          1.00862       -0.00406        0.13165
C          0.55465        1.24438        0.87264
C          1.01219        2.52890        0.17637
C          0.45728        2.69449       -1.24523
C         -1.06747        2.69292       -1.30871
O         -1.60302        3.79440       -0.59189
H          0.60594       -0.04221       -0.88495
H          0.66577       -0.90293        0.65089
H          2.10075       -0.03533        0.06798
H         -0.53549        1.23253        0.98066
H          0.95893        1.22538        1.89108
H          0.72263        3.39097        0.78908
H          2.10834        2.54588        0.13383
H          0.83339        3.64182       -1.64934
H          0.84866        1.90331       -1.89420
H         -1.39872        2.77821       -2.34818
H         -1.49750        1.76854       -0.91113
H         -1.33385        3.70281        0.34164