24

C          1.30229        0.20913       -0.02741
C          0.77090        0.94508       -1.24326
C          1.03236        0.20646       -2.55153
C          0.43302       -1.20754       -2.68661
C         -1.11469       -1.30858       -2.70026
O         -1.72606       -1.82868       -3.64757
C         -1.93418       -0.82148       -1.51171
C         -1.63643       -1.53027       -0.20573
O          1.01721       -1.83585       -3.84693
O          0.67514       -1.01900       -5.00679
H          1.16133       -0.86832       -0.07981
H          0.80447        0.56709        0.87889
H          2.37905        0.34848        0.06620
H         -0.28765        1.15818       -1.12867
H          1.22583        1.94047       -1.28355
H          0.67564        0.83260       -3.37846
H          2.12157        0.14032       -2.68770
H          0.77810       -1.84407       -1.86703
H         -1.87556        0.26198       -1.42612
H         -2.99015       -0.99472       -1.74617
H         -0.58679       -1.54239        0.05723
H         -2.16507       -1.05168        0.62485
H         -1.93256       -2.57981       -0.26263
H          0.84763       -1.70703       -5.67509