22

C          1.36971       -0.00267       -0.15450
C          0.83600       -1.42350       -0.11929
C          1.10217       -2.14593        1.20467
C          0.53723       -1.48292        2.50181
C         -1.03717       -1.49971        2.56757
O         -1.70255       -2.09263        3.43630
C         -1.84897       -0.72735        1.52435
C         -1.56556        0.75818        1.43332
O          1.05764       -2.19283        3.49712
H          1.23234        0.53848        0.77843
H          0.87010        0.56931       -0.94230
H          2.44585       -0.00034       -0.32625
H         -0.22126       -1.44077       -0.36430
H          1.29045       -1.98859       -0.94071
H          0.72076       -3.17401        1.11306
H          2.19850       -2.23522        1.28075
H          0.79483       -0.41941        2.49014
H         -1.79635       -1.22567        0.55828
H         -2.90662       -0.83331        1.79251
H         -0.52000        1.00103        1.29772
H         -2.10319        1.20195        0.58868
H         -1.86757        1.26348        2.35290