24

C          1.17728        0.13516       -0.21684
C          0.65098       -1.29435       -0.24014
C          0.98178       -2.13250        0.99772
C          0.46973       -1.67538        2.33560
O          0.06737       -0.30090        2.38764
C         -0.93643       -1.24120        2.72462
C         -2.12618       -1.38412        1.83869
C         -2.70579       -2.79175        1.97073
O         -3.18539       -3.02402        3.30160
O         -2.04692       -3.50635        4.07856
H          0.78375        0.73528        0.60385
H          0.87724        0.65600       -1.13030
H          2.26773        0.14656       -0.14550
H         -0.42103       -1.28521       -0.43178
H          1.08765       -1.79377       -1.11422
H          0.64047       -3.16215        0.82912
H          2.07597       -2.19581        1.07131
H          1.05358       -2.10367        3.14569
H         -1.22558       -1.20991        3.76656
H         -2.87698       -0.64561        2.14083
H         -1.91520       -1.18021        0.78985
H         -3.56905       -2.89240        1.30463
H         -1.97879       -3.56150        1.68547
H         -2.21552       -2.95455        4.86852