22

C          1.03798       -0.06258        0.00662
C          0.61647        0.80353        1.17329
C          1.13755        2.23001        1.00183
C          0.45827        2.99066       -0.14019
C         -1.07123        2.99767       -0.08624
C         -1.67462        3.82004        1.05455
O         -2.27508        4.87279        0.76807
C         -1.48666        3.40523        2.53119
O         -1.95744        2.18407        2.73045
H          0.63412        0.32340       -0.93443
H          0.66298       -1.07992        0.13452
H          2.12785       -0.08484       -0.06564
H         -0.47200        0.76246        1.23728
H          0.98405        0.38847        2.11760
H          1.03207        2.77860        1.93556
H          2.22079        2.21084        0.83652
H          0.83508        4.01988       -0.16631
H          0.77234        2.54031       -1.09179
H         -1.42422        3.45428       -1.02280
H         -1.50252        1.99251       -0.10348
H         -0.43886        3.63517        2.75911
H         -1.95383        4.22152        3.10035