25

C          1.00433        0.12622       -0.15478
C          0.56565       -1.29220        0.17228
C          1.06327       -1.72552        1.55382
C          0.52099       -0.84831        2.69180
C         -1.00885       -0.87890        2.78903
C         -1.58835       -2.28618        3.02443
O         -1.26791       -2.74227        4.34171
O          0.03051       -3.27648        4.28801
C         -3.11578       -2.27232        2.93821
O         -3.59370       -1.88710        1.65717
H          0.59335        0.85175        0.55363
H          0.66001        0.41811       -1.14912
H          2.09570        0.20037       -0.12274
H         -0.52622       -1.36672        0.10920
H          0.95824       -1.98010       -0.58471
H          0.79304       -2.77522        1.71345
H          2.15864       -1.70183        1.57343
H          0.97228       -1.14747        3.64249
H          0.84455        0.18940        2.55435
H         -1.31664       -0.21528        3.60582
H         -1.41947       -0.44177        1.87282
H         -1.23215       -2.99462        2.26658
H         -3.49801       -3.28024        3.13985
H         -3.54754       -1.61599        3.70130
H         -3.38786       -0.94105        1.51539