19

C          1.00568       -0.06166        0.18856
C          0.56465        1.23966       -0.46302
C          1.03257        1.34346       -1.91673
C          0.44536        0.26708       -2.84019
C         -1.08649        0.19820       -2.84593
C         -1.74400        1.47531       -3.25734
H         -2.78088        1.45770       -3.58116
H         -1.33272        2.43366       -2.97339
H          0.59648       -0.93374       -0.32992
H          0.65998       -0.10486        1.22518
H          2.09683       -0.14132        0.18384
H         -0.52484        1.33240       -0.39904
H          0.97366        2.08284        0.10472
H          0.77941        2.33880       -2.30197
H          2.12685        1.28403       -1.95181
H          0.81122        0.43575       -3.86012
H          0.83690       -0.71574       -2.54580
H         -1.40169       -0.59745       -3.52803
H         -1.45778       -0.08325       -1.85469