19

C          0.92909       -0.02441       -0.02246
C          0.42814       -0.91053       -1.15773
C          0.92965       -2.36051       -1.06817
C          0.51061       -3.01822        0.21110
O         -0.79395       -3.61097        0.15484
C          0.29474       -4.49316        0.44202
C          0.55423       -5.55214       -0.56169
H          0.54682       -0.35629        0.94755
H          0.58866        1.00598       -0.16131
H          2.02256       -0.02399        0.01971
H         -0.66834       -0.89465       -1.16475
H          0.75956       -0.47760       -2.10946
H          0.55082       -2.91050       -1.93849
H          2.02301       -2.37137       -1.13750
H          0.81596       -2.46901        1.09295
H          0.38533       -4.86136        1.45767
H          1.59984       -5.86798       -0.49699
H         -0.06956       -6.42501       -0.34227
H          0.34831       -5.23811       -1.58804