22

C          0.94414        0.11002       -0.00503
C          0.51376       -1.06408       -0.87136
C          0.99684       -2.40230       -0.30267
C          0.41704       -2.72063        1.08152
C         -1.12307       -2.72961        1.14203
O         -1.64656       -3.86272        0.44365
O         -1.67809       -3.52691       -0.91997
C         -1.61361       -2.85854        2.58664
O         -1.20888       -1.77073        3.40645
H          0.53463        0.04043        1.00757
H          0.59100        1.05148       -0.43349
H          2.03512        0.14802        0.06953
H         -0.57563       -1.05227       -0.98019
H          0.91478       -0.93720       -1.88256
H          0.76353       -3.21137       -1.00307
H          2.09152       -2.38540       -0.22825
H          0.79791       -3.69934        1.39801
H          0.82465       -1.99177        1.78918
H         -1.54262       -1.79720        0.74530
H         -2.70985       -2.88456        2.59664
H         -1.27546       -3.79859        3.03579
H         -0.24032       -1.81310        3.53006