26

C          0.97841       -0.03817        0.16396
C          0.54402        1.11304       -0.73213
C          1.02376        0.92631       -2.17522
C          0.47059       -0.34989       -2.83361
C         -1.07277       -0.37383       -2.88485
C         -1.73454        0.73669       -3.70998
C         -1.51298        0.68287       -5.21751
O         -2.04519       -0.49555       -5.81381
O         -1.12069       -1.52903       -5.59396
O          1.07794       -0.69975       -4.08347
O          1.62107        0.49097       -4.71148
H          0.55927       -0.99515       -0.16148
H          0.63766        0.12277        1.18905
H          2.06899       -0.12787        0.16416
H         -0.54587        1.21822       -0.69466
H          0.94792        2.05171       -0.33911
H          0.73896        1.80945       -2.76109
H          2.12026        0.90537       -2.19683
H          0.75924       -1.19935       -2.20647
H         -1.42436       -1.35478       -3.21794
H         -1.46141       -0.29027       -1.86164
H         -2.81509        0.68141       -3.52810
H         -1.41543        1.71621       -3.33604
H         -2.05309        1.52187       -5.66781
H         -0.47735        0.84570       -5.50445
H          1.44185        0.18914       -5.63408