25

C          1.13071       -0.08474        0.08262
C          0.72594        1.31943        0.50030
C          1.13101        2.35808       -0.55531
C          0.48443        2.06250       -1.90509
C         -1.03355        2.09727       -1.75652
C         -1.76134        3.32178       -2.35540
C         -0.93861        4.46791       -3.05019
O         -1.05886        4.61415       -4.47381
O         -0.61080        3.35642       -5.06026
O         -2.68281        2.81476       -3.18065
H          0.68953       -0.38120       -0.87488
H          0.78371       -0.81313        0.81710
H          2.21722       -0.14652       -0.01198
H         -0.35336        1.31766        0.68159
H          1.16760        1.58467        1.46395
H          0.82851        3.36221       -0.22853
H          2.22058        2.37661       -0.66696
H          0.86103        2.74113       -2.66652
H          0.79923        1.08508       -2.28695
H         -1.43651        1.10061       -2.00464
H         -1.32297        2.15661       -0.69702
H         -2.06875        3.83768       -1.43764
H         -1.32855        5.40864       -2.64052
H          0.12458        4.50656       -2.79100
H         -1.38870        2.83977       -4.73023