24

C          1.14916       -0.20238       -0.06415
C          0.74088       -0.10321        1.38102
C          1.06669        1.31243        1.86512
C          0.04414        2.27583        1.20882
C         -1.35907        1.84802        1.68231
C         -1.72634        2.68527        2.89073
O         -2.60234        3.51611        2.86015
C         -0.79877        2.50790        4.08287
O          0.26367        3.31672        3.58110
O          0.66431        4.33184        4.49221
H          0.72048        0.60174       -0.66828
H          0.78036       -1.12899       -0.49576
H          2.23367       -0.12575       -0.12560
H         -0.32187       -0.35385        1.41515
H          1.20113       -0.85527        2.02599
H          1.04246        1.28473        2.95417
H          2.10396        1.59422        1.65063
H          0.23373        2.26165        0.13266
H          0.13989        3.35929        1.37445
H         -2.09129        1.85011        0.87422
H         -1.42567        0.85427        2.13049
H         -0.43513        1.47452        4.17681
H         -1.30260        2.76585        5.01159
H          1.00160        4.92774        3.78885