24

C          1.04746        0.02913       -0.12829
C          0.56733       -1.26390       -0.76900
C          1.10412       -2.51707       -0.07210
C          0.58012       -2.65580        1.34877
C          1.17275       -3.78807        2.21522
C          1.07824       -2.72344        3.33053
O          1.16649       -1.69162        2.28800
C          2.18963       -2.66381        4.36450
O          1.97881       -1.57145        5.27012
O          2.43881       -0.37805        4.57615
H          0.63983        0.15164        0.87828
H          0.71532        0.89339       -0.70977
H          2.14007        0.05054       -0.06782
H         -0.52896       -1.27762       -0.78292
H          0.89803       -1.27682       -1.81503
H          0.77281       -3.38987       -0.64996
H          2.19947       -2.52152       -0.09488
H         -0.51685       -2.59666        1.38761
H          0.54826       -4.67301        2.33958
H          2.19343       -4.07761        1.94275
H          0.09154       -2.68021        3.81260
H          2.15156       -3.57254        4.97676
H          3.18991       -2.60842        3.92315
H          2.05216        0.26539        5.20314