17

C          0.93438        0.05000        0.00513
C          0.45049       -1.38127       -0.16302
C          0.89860       -2.28365        0.99126
C          0.37399       -1.84586        2.37110
C         -1.14405       -1.80060        2.41402
O         -1.85613       -2.32117        3.26987
O          0.90850       -2.61822        3.43487
O          0.60618       -3.96514        3.17360
H          0.55280        0.50343        0.92435
H          0.58979        0.67142       -0.82513
H          2.02770        0.08137        0.03715
H         -0.64079       -1.39380       -0.25527
H          0.83370       -1.78495       -1.10743
H          0.57034       -3.30767        0.77379
H          1.99604       -2.32506        1.01630
H          0.71147       -0.82290        2.57040
H         -1.61693       -1.17151        1.64281