16

C          1.05749       -0.05169        0.18382
C          0.58891        1.30310       -0.32435
C          1.00106        1.56855       -1.77617
C          0.51768        0.52114       -2.78732
C         -0.96159        0.31223       -2.79582
H         -1.42209       -0.18024       -3.64748
H         -1.53997        0.35511       -1.88268
H          0.65205       -0.87287       -0.41525
H          0.72489       -0.20705        1.21389
H          2.14930       -0.11605        0.15905
H         -0.49844        1.37845       -0.21799
H          1.00879        2.08971        0.31437
H          0.63452        2.55945       -2.07289
H          2.09669        1.61880       -1.82802
H          0.83422        0.82837       -3.78981
H          1.00575       -0.43979       -2.59244