22

C          0.93597        0.01482       -0.03546
C          0.48685       -1.41671        0.22455
C          0.97759       -1.95301        1.57709
C          0.42812       -1.17513        2.78945
C         -1.11442       -1.20092        2.91485
C         -1.79104       -2.59572        3.02790
O         -1.57644       -3.05214        4.25600
O          1.12015       -1.46242        4.01886
O          1.20540       -2.91007        4.17639
H          0.53046        0.71172        0.70368
H          0.59108        0.35272       -1.01663
H          2.02781        0.08494       -0.00999
H         -0.60508       -1.47599        0.15508
H          0.87570       -2.05843       -0.57448
H          0.70836       -3.01362        1.65125
H          2.07394       -1.93516        1.60111
H          0.68476       -0.12272        2.63652
H         -1.42557       -0.55228        3.74518
H         -1.52479       -0.72314        2.01260
H         -2.83422       -2.42152        2.71875
H         -1.43225       -3.18961        2.17620
H          0.25829       -3.04481        4.45551