25

C          1.12109        0.14972        0.18007
C          0.71935        0.53953       -1.23452
C          1.15476       -0.48852       -2.28222
C          0.55705       -1.88819       -2.09479
C         -0.97870       -1.94632       -2.13238
C         -1.60960       -1.58611       -3.50552
C         -1.12125       -2.48280       -4.69224
O         -1.53229       -3.85901       -4.68828
O         -0.70743       -4.56310       -3.71916
O         -2.92486       -1.70270       -3.36935
H          0.65474       -0.78996        0.49008
H          0.80683        0.92090        0.88947
H          2.20717        0.03673        0.25663
H         -0.36339        0.69872       -1.27915
H          1.17994        1.50442       -1.47725
H          0.90507       -0.10714       -3.27893
H          2.24840       -0.57398       -2.26070
H          0.98014       -2.55449       -2.85338
H          0.89455       -2.30117       -1.13726
H         -1.28891       -2.94454       -1.80270
H         -1.37443       -1.27530       -1.35663
H         -1.21147       -0.59102       -3.75291
H         -1.50948       -2.06384       -5.62978
H         -0.02985       -2.44469       -4.78760
H         -1.37121       -4.50095       -3.00359