22

C          0.91224        0.59736       -0.09896
C          0.32823        0.39818       -1.48346
C          0.75234       -0.83662       -2.27491
C          0.33019       -2.22982       -1.78653
O         -0.33231       -2.91923       -2.57197
C          0.79711       -2.84325       -0.44029
C          2.34067       -2.84870       -0.23353
C          3.18349       -1.58091       -0.33266
O          0.17520       -2.38419        0.63010
H          0.79127       -0.26388        0.53606
H          0.41001        1.40329        0.43927
H          1.97629        0.83281       -0.14487
H         -0.76335        0.40432       -1.41640
H          0.61759        1.28374       -2.06485
H          0.26994       -0.72922       -3.26052
H          1.80321       -0.82834       -2.56163
H          0.59974       -3.91248       -0.62802
H          2.57205       -3.28629        0.74819
H          2.74550       -3.54171       -0.98008
H          2.98356       -0.89904        0.49313
H          4.24871       -1.82515       -0.28364
H          3.08334       -1.05324       -1.27423