24

C          0.97911        0.09005        0.19334
C          0.55371        0.71878       -1.11616
C          1.09215       -0.09931       -2.28900
C          0.43062       -1.47451       -2.42247
C         -1.09785       -1.44685       -2.46386
C         -1.67622       -0.84292       -3.73552
O         -2.29935       -1.56641       -4.52724
C         -1.47311        0.63988       -4.04948
O         -1.80070        1.52757       -2.99726
O         -3.22903        1.37191       -2.77815
H          0.58166       -0.92511        0.28930
H          0.60679        0.67243        1.03773
H          2.06988        0.03921        0.24142
H         -0.53630        0.79194       -1.12242
H          0.91848        1.74890       -1.18733
H          0.98896        0.46531       -3.21179
H          2.17660       -0.22198       -2.19019
H          0.81629       -1.97785       -3.31652
H          0.74746       -2.09741       -1.57524
H         -1.44996       -2.48703       -2.41206
H         -1.54113       -0.96621       -1.58653
H         -0.44185        0.81808       -4.35464
H         -2.05755        0.90954       -4.93274
H         -3.29778        2.00157       -2.03794