22

C          1.10438        0.17581       -0.07742
C          0.73712       -1.21504       -0.54587
C          1.13108       -2.22503        0.52309
C          0.24169       -2.01162        1.75984
C         -1.26193       -2.10736        1.36022
C         -1.97883       -3.33136        1.87712
O         -3.17937       -3.34506        2.06956
C         -1.10234       -4.58607        1.83639
O         -0.73990       -4.77558        3.09362
H          0.64705        0.42318        0.88658
H          0.73644        0.91399       -0.78703
H          2.18685        0.25077        0.03913
H         -0.33671       -1.21124       -0.74255
H          1.18984       -1.48074       -1.50277
H          1.02503       -3.24265        0.12987
H          2.19630       -2.13492        0.77783
H          0.57726       -2.70983        2.53154
H          0.44772       -1.04240        2.22625
H         -1.81506       -1.17890        1.53656
H         -1.37659       -2.32529        0.29233
H         -0.33358       -4.38167        1.07579
H         -1.70470       -5.29348        1.25788