24

C          1.08689        0.17987        0.13467
C          0.64389        0.51067       -1.28139
C          1.12937       -0.54200       -2.27946
C          0.57272       -1.94405       -1.99290
C         -0.95742       -2.02010       -2.09436
C         -1.49109       -1.64934       -3.48621
O         -1.08239       -2.61498       -4.46098
O          0.24443       -2.23534       -4.92334
C         -2.98182       -1.67522       -3.52088
H         -3.47954       -1.14023       -4.32216
H         -3.51192       -2.49315       -3.04908
H          0.67411       -0.77383        0.47663
H          0.74694        0.94623        0.83437
H          2.17831        0.11545        0.18432
H         -0.44738        0.60444       -1.31697
H          1.04185        1.49036       -1.56864
H          0.86134       -0.21852       -3.29123
H          2.22490       -0.58102       -2.26738
H          1.03191       -2.66931       -2.67186
H          0.88212       -2.27701       -0.99613
H         -1.25891       -3.04394       -1.83986
H         -1.40912       -1.37376       -1.33039
H         -1.17860       -0.64147       -3.78218
H          0.56580       -3.15025       -5.05818