24

C          0.94160       -0.15403        0.00794
C          0.45129        0.51906        1.28208
C          0.91716        1.97309        1.39418
C          0.40151        2.85933        0.26191
C         -1.11013        2.99522        0.23912
C         -1.27638        4.26637       -0.55895
C         -0.07641        5.10140       -0.13083
O          0.91675        4.19541        0.38985
O         -2.53982        4.90222       -0.40240
O         -2.68832        5.23248        1.00833
H          0.55665        0.34291       -0.88739
H          0.60410       -1.19346       -0.02963
H          2.03511       -0.14380       -0.03778
H         -0.64280        0.46759        1.32403
H          0.82250       -0.04330        2.14668
H          0.59253        2.38459        2.35931
H          2.01342        2.01243        1.41933
H          0.76448        2.49206       -0.70437
H         -1.61393        2.13875       -0.21910
H         -1.51161        3.10426        1.25310
H         -1.17678        4.02391       -1.62519
H         -0.30885        5.83550        0.64500
H          0.34993        5.64258       -0.98220
H         -3.58394        5.61482        0.93505