23

C          1.32735       -0.08682        0.03333
C          1.17916        0.14892        1.56569
C          1.27022        1.63738        1.91887
C          0.57319        2.66992        0.96281
C         -0.95320        2.68620        0.79185
H         -1.32981        3.62236        0.37834
C         -1.79363        1.50858        0.32554
O         -1.33414        1.17870       -1.00028
C         -1.61615        0.30384        1.18663
H          0.92207        0.70027       -0.61904
H          0.82381       -0.99443       -0.31939
H          2.38493       -0.10361       -0.22354
H          0.25683       -0.09097        2.09221
H          1.63308       -0.67095        2.13342
H          0.82808        1.79268        2.91187
H          2.33801        1.85940        1.96974
H          0.88574        3.67108        1.30473
H          0.99801        2.60590       -0.04383
H         -2.85331        1.68253        0.28475
H         -1.33905        1.95575       -1.52403
H         -1.61862        0.47228        2.26652
H         -1.75165       -0.74808        0.91585
H         -0.63161        0.26372        0.80263