26

C          1.13029        0.36695       -0.29861
C          0.63830       -1.02080       -0.61656
C          0.95447       -1.90255        0.58168
C          0.04520       -1.54397        1.81119
C         -1.20159       -2.40589        1.60709
C         -0.64045       -3.87927        1.79062
C         -1.35917       -4.85679        2.68016
O         -1.98089       -4.29769        3.84566
O         -1.05495       -3.31101        4.38661
O          0.66354       -3.84224        2.45940
O          1.51256       -4.74957        1.81157
H          0.73231        0.72698        0.65082
H          0.82251        1.07737       -1.06091
H          2.21942        0.34438       -0.20766
H         -0.43632       -1.02220       -0.83972
H          1.12962       -1.41437       -1.51637
H          0.79883       -2.91541        0.18849
H          2.01044       -1.87496        0.85836
H          0.06565       -0.46887        1.99755
H          0.38744       -1.83137        2.81215
H         -1.57896       -2.19835        0.59146
H         -2.10448       -2.23032        2.20878
H         -0.52471       -4.30834        0.78685
H         -2.13450       -5.37380        2.10325
H         -0.64432       -5.62333        3.00825
H         -1.59222       -3.11987        5.22444