24

C          1.17152        0.11862       -0.15913
C          1.00890       -0.92519       -1.31131
C          1.10617       -2.36203       -0.77025
C          0.42451       -2.70162        0.60498
C         -1.10228       -2.64381        0.73501
H         -1.47685       -3.15802        1.62335
C         -1.94046       -1.38861        0.50683
O         -1.45140       -0.34128        1.37082
O         -1.69287       -0.80615        2.71534
C         -1.74895       -0.86968       -0.89490
H          0.78149       -0.16955        0.82985
H          0.66888        1.07228       -0.35784
H          2.23262        0.25987        0.03676
H          0.08621       -0.99539       -1.89106
H          1.45460       -0.56797       -2.24490
H          0.66483       -3.04934       -1.50370
H          2.17559       -2.55892       -0.68779
H          0.75003       -3.71794        0.88391
H          0.83645       -2.07784        1.40553
H         -2.99744       -1.48149        0.60435
H         -1.18779       -0.04369        3.14586
H         -1.77177       -1.61457       -1.69104
H         -1.83646        0.15702       -1.24233
H         -0.75929       -0.69146       -0.56849