21

C          1.12780       -0.10360       -0.00565
C          0.64708       -0.63565        1.33817
C          1.10393        0.24472        2.51256
C          0.47854        1.62829        2.37758
O         -0.04455        2.13573        3.64803
C          0.20382        3.49037        3.15927
C          1.25473        2.95433        2.17019
O          2.66762        3.07420        2.48391
O          2.85473        2.67518        3.86652
H          0.76480        0.91196       -0.19354
H          0.75962       -0.73486       -0.81956
H          2.22045       -0.08499       -0.04460
H         -0.44975       -0.69109        1.32863
H          1.01068       -1.66025        1.47502
H          0.76491       -0.23422        3.44010
H          2.19793        0.28309        2.55525
H         -0.36928        1.57330        1.67891
H          0.54225        4.16532        3.94646
H         -0.69994        3.89701        2.68690
H          1.10917        3.35330        1.15866
H          3.81633        2.86481        3.90134