24

C          1.04941        0.20029       -0.07361
C          0.51951       -0.42099       -1.35458
C          0.93124       -1.88787       -1.50917
C          0.39167       -2.82179       -0.41150
C         -1.12675       -2.72575       -0.34689
O         -1.76077       -3.81639        0.39552
C         -2.79968       -2.87555        0.81670
C         -1.86324       -1.69593        0.55173
O         -1.23899       -1.06985        1.70544
O         -0.60266       -2.11079        2.49611
H          0.78716       -0.38063        0.80866
H          0.64088        1.20527        0.06283
H          2.13993        0.25808       -0.09573
H         -0.57064       -0.32736       -1.39850
H          0.89521        0.15337       -2.20859
H          0.57428       -2.24430       -2.48464
H          2.02532       -1.95564       -1.53662
H          0.69206       -3.84696       -0.66202
H          0.86434       -2.59675        0.54792
H         -1.52385       -2.75184       -1.37400
H         -3.10554       -3.01336        1.85560
H         -3.67381       -2.91743        0.15704
H         -2.33459       -0.90454       -0.04328
H          0.05952       -1.52908        2.92607