21

C          1.05097       -0.01103        0.11765
C          0.55312        1.03419       -0.86020
C          1.01492        0.65229       -2.23463
C          0.43286       -0.68728       -2.59735
C         -0.73667       -0.47059       -3.52483
C         -1.53509        0.72157       -4.01665
O         -2.47682        0.55220       -4.84368
O         -0.26302       -0.97500       -4.75578
O          0.65395        0.10137       -5.21280
H          0.67127       -1.00906       -0.12353
H          0.72391        0.22371        1.12675
H          2.14356       -0.06375        0.07672
H         -0.54181        1.09649       -0.84723
H          0.94866        2.02334       -0.61976
H          0.73168        1.43048       -2.95149
H          2.10983        0.62064       -2.31395
H          1.29163       -1.39014       -2.64768
H         -0.06627       -1.41005       -1.93519
H         -1.56422       -0.89815       -2.92503
H         -1.33213        1.72248       -3.64503
H          0.90354       -0.30388       -6.05589