19

C          1.03114       -0.12420        0.00352
C          0.56386        1.30485        0.22559
C          1.00974        2.25076       -0.89506
C          0.46608        1.86851       -2.27522
C         -1.02943        1.95103       -2.31721
C         -1.73425        2.29125       -3.60060
O         -1.66644        0.94288       -3.11619
H          0.63069       -0.54174       -0.92487
H          0.68982       -0.76643        0.81981
H          2.12331       -0.16838       -0.04168
H         -0.52692        1.31247        0.32730
H          0.96007        1.67202        1.17922
H          0.67957        3.26856       -0.65104
H          2.10561        2.27638       -0.93345
H          0.89039        2.55486       -3.01754
H          0.81007        0.86844       -2.56251
H         -1.50783        2.22729       -1.39021
H         -2.67153        2.82458       -3.51210
H         -1.14569        2.53366       -4.47355