21

C          1.26353       -0.28850       -0.39540
C          0.75015       -0.88036        0.89622
C          0.96668        0.17429        1.97444
C          0.20638        1.52042        1.56015
C         -1.01342        1.87534        2.39845
O         -1.49226        2.98197        2.50360
C         -1.57634        0.67146        3.09884
O         -0.63547        1.41474        3.92905
O          0.01030        0.73434        4.99579
H          0.94404        0.74278       -0.55391
H          0.89442       -0.84884       -1.24794
H          2.35253       -0.24371       -0.35731
H         -0.31537       -1.13478        0.82304
H          1.25969       -1.82447        1.13663
H          0.66811       -0.31058        2.91535
H          2.03872        0.35236        2.12662
H          0.89731        2.36530        1.51808
H         -0.32584        1.42490        0.60968
H         -1.27598       -0.19122        2.49119
H         -2.59057        0.93905        2.74652
H          0.58647        1.51270        5.20018