23

C          1.04923       -0.03723        0.22314
C          0.55607        0.98227       -0.78680
C          1.02629        0.56538       -2.14985
C          0.43544       -0.78402       -2.46190
C         -0.72986       -0.62230       -3.42397
C         -1.54765        0.54010       -3.93446
C         -2.46772        0.19476       -4.89467
O         -0.18003       -1.20614       -4.60390
O          0.71806       -0.14255       -5.12160
H          0.66682       -1.04184        0.01815
H          0.72209        0.22707        1.22440
H          2.14093       -0.09959        0.18258
H         -0.53953        1.03946       -0.78282
H          0.94709        1.97803       -0.56929
H          0.74862        1.32022       -2.89284
H          2.12154        0.52265       -2.21653
H          1.29174       -1.47095       -2.61674
H         -0.03111       -1.44710       -1.72003
H         -1.53063       -1.13655       -2.86327
H         -1.34265        1.57349       -3.71713
H         -2.97206        0.90703       -5.51285
H         -2.60844       -0.86245       -5.11037
H          0.89141       -0.54785       -5.98165