26

C          1.08879       -0.03913       -0.08442
C          0.66164       -0.04330        1.37769
C          1.13818        1.20300        2.13786
C          0.54401        2.51146        1.58884
C         -1.00242        2.56479        1.50142
O         -1.65366        2.58873        2.78105
O         -1.56148        1.25252        3.34758
C         -1.49386        3.81471        0.75423
C         -1.02898        3.87153       -0.69406
O          1.10704        3.67327        2.21046
O          0.76669        3.64605        3.57168
H          0.67264        0.81228       -0.63188
H          0.73729       -0.94476       -0.58671
H          2.17908        0.00140       -0.16539
H         -0.42751       -0.14118        1.42926
H          1.06427       -0.93655        1.86668
H          0.91808        1.09500        3.20505
H          2.23343        1.26292        2.08340
H          0.92719        2.57800        0.56712
H         -1.38307        1.69887        0.94809
H         -1.29595        1.54529        4.24535
H         -2.59116        3.82598        0.77410
H         -1.18005        4.71975        1.28696
H         -1.35182        2.98011       -1.24193
H         -1.44768        4.75047       -1.19155
H          0.05914        3.94575       -0.77309