26

C          1.03347       -0.11788        0.16604
C          0.60138        1.32935        0.36032
C          1.08324        2.24298       -0.77404
C          0.49611        1.86874       -2.14300
C         -1.05254        1.77797       -2.21096
O         -1.71027        3.05131       -2.05382
O         -1.60895        3.44096       -0.65564
C         -1.53206        1.22909       -3.56885
C         -1.02837       -0.13178       -3.94268
H         -1.56854       -0.70550       -4.68741
H          0.00098       -0.42164       -3.76456
O          1.06986        2.66196       -3.19737
O          0.66698        4.04060       -2.98267
H          0.62256       -0.54920       -0.75212
H          0.68041       -0.73591        0.99605
H          2.12417       -0.18852        0.11865
H         -0.48841        1.36490        0.45736
H          0.99753        1.70036        1.31119
H          0.86387        3.28822       -0.53320
H          2.17878        2.19634       -0.83671
H          0.89270        0.87088       -2.35191
H         -1.43357        1.10162       -1.43604
H         -1.36299        4.37054       -0.82855
H         -2.62929        1.19529       -3.55511
H         -1.26925        1.93515       -4.36416
H          0.91256        4.35567       -3.87617