20

C          1.03605       -0.09027        0.17580
C          0.58335        1.36161        0.19712
C          1.04563        2.12561       -1.04682
C          0.48501        1.55989       -2.36163
C         -1.04798        1.54862       -2.39957
O         -1.55991        2.86603       -2.30085
C         -1.58976        1.01217       -3.67024
H         -2.62650        0.69520       -3.68713
H         -1.12783        1.28711       -4.60972
H          0.63492       -0.62876       -0.68813
H          0.69123       -0.61232        1.07207
H          2.12818       -0.14860        0.13735
H         -0.50686        1.40587        0.29542
H          0.98465        1.85282        1.09058
H          0.76021        3.17971       -0.94738
H          2.14163        2.11631       -1.09142
H          0.87567        2.17356       -3.18341
H          0.87548        0.54802       -2.52638
H         -1.45829        0.94744       -1.58188
H         -1.27890        3.22863       -1.44149