22

C          0.97605       -0.22850       -0.13971
C          0.56450        0.04306        1.29965
C          1.02732        1.40728        1.81898
C          0.46948        2.62683        1.06816
C         -1.07493        2.80039        1.12116
C         -1.67922        2.90463        2.56241
O         -1.40506        4.10137        3.30749
O         -0.03967        4.00725        3.79704
O         -1.35945        3.90200        0.43917
H          0.51136        0.47754       -0.83379
H          0.66520       -1.23522       -0.43656
H          2.06279       -0.16285       -0.25443
H         -0.52126       -0.05870        1.39707
H          1.00384       -0.73464        1.93621
H          0.78172        1.48135        2.88382
H          2.12275        1.44670        1.76293
H          0.98197        3.51808        1.44973
H          0.79269        2.55967        0.01906
H         -1.47991        1.84938        0.74385
H         -2.77367        2.85662        2.48407
H         -1.38977        2.04074        3.17152
H          0.34018        4.48760        3.03543