16

C          0.99088       -0.14850       -0.04859
C          0.45573       -0.69118        1.26625
C          0.95255        0.06502        2.49571
C          0.41463        1.48095        2.63880
O         -0.31541        1.78104        3.59112
C          0.81127        2.53166        1.63218
H          0.55749        0.81654       -0.29394
H          0.71389       -0.79714       -0.88236
H          2.07931       -0.04228       -0.01949
H         -0.63988       -0.69354        1.24643
H          0.77491       -1.73821        1.34996
H          0.62328       -0.49017        3.38630
H          2.04681        0.08666        2.54088
H          1.89338        2.52300        1.47917
H          0.28250        2.39506        0.69141
H          0.51088        3.51885        1.99033