20

C          1.08641        0.12947       -0.12562
C          0.65170       -1.02734       -1.01317
C          1.12410       -2.38450       -0.47375
C          0.50929       -2.74733        0.88929
C         -1.02493       -2.74173        0.94335
O         -1.61313       -3.78413        0.17022
O         -1.61805       -3.34959       -1.16683
O          1.06296       -3.96656        1.41902
O          0.64322       -5.04849        0.54518
H          0.67847        0.04218        0.88577
H          0.73277        1.07968       -0.53516
H          2.17740        0.16643       -0.05343
H         -0.43761       -1.00498       -1.12097
H          1.05426       -0.87923       -2.02133
H          0.90864       -3.16610       -1.21142
H          2.21857       -2.38070       -0.38607
H          0.84824       -1.98995        1.60637
H         -1.33796       -2.91361        1.97860
H         -1.44420       -1.77042        0.65437
H          1.07342       -5.77068        1.04900