24

C          0.96138        0.13474        0.01729
C          0.50385       -1.00335       -0.88178
C          0.99520       -2.35249       -0.35269
C          0.45704       -2.65912        1.04861
C         -1.07245       -2.71107        1.08992
C         -1.66945       -3.80571        0.19225
C         -1.16916       -5.18559        0.61336
O         -1.87770       -6.15181        0.89637
O         -3.08628       -3.68702        0.13951
O         -3.57319       -3.82261        1.50411
H          0.57018        0.03483        1.03455
H          0.61057        1.09507       -0.36460
H          2.05394        0.15060        0.07561
H         -0.58894       -0.99061       -0.96630
H          0.88319       -0.84992       -1.89726
H          0.70878       -3.14450       -1.05425
H          2.09065       -2.36485       -0.32927
H          0.88300       -3.60040        1.40859
H          0.81018       -1.91304        1.76844
H         -1.38742       -2.85726        2.12941
H         -1.50272       -1.73992        0.81088
H         -1.33574       -3.66254       -0.84186
H         -0.07394       -5.30835        0.60798
H         -4.49454       -4.02557        1.26532