23

C          1.00124       -0.01147       -0.09281
C          0.55953       -1.35343       -0.65503
C          1.05211       -2.51901        0.20655
C          0.50425       -2.49507        1.63940
C         -1.03144       -2.57286        1.70565
C         -1.60987       -3.85881        1.06009
O         -1.27929       -4.89788        1.81766
C         -3.14162       -3.78156        1.04722
H          0.59459        0.16267        0.90792
H          0.65427        0.80544       -0.73012
H          2.09291        0.03325       -0.03006
H         -0.53199       -1.37237       -0.75038
H          0.95268       -1.46796       -1.67133
H          0.78555       -3.46336       -0.28196
H          2.14761       -2.50701        0.24361
H          0.94438       -3.32507        2.20439
H          0.83899       -1.58870        2.15655
H         -1.34918       -2.46849        2.75244
H         -1.45597       -1.69543        1.19695
H         -1.32663       -3.84058        0.00186
H         -3.47072       -2.92184        0.45065
H         -3.57625       -4.67984        0.59099
H         -3.56376       -3.66872        2.05275