23

C          1.09599       -0.13831       -0.09699
C          0.71318       -0.60713        1.29295
C          1.27230        0.35824        2.33953
C          0.56226        1.71853        2.35935
C         -0.97629        1.68163        2.37540
C         -1.63227        1.07618        3.57801
H         -2.65168        1.39986        3.77466
C         -1.30887       -0.30173        4.05445
O         -1.46677        3.01566        2.26047
H          0.69090        0.85747       -0.30216
H          0.70993       -0.82127       -0.85616
H          2.18517       -0.08932       -0.18497
H         -0.37534       -0.70049        1.35139
H          1.10348       -1.61463        1.47295
H          1.25125       -0.10368        3.32672
H          2.34175        0.51582        2.15468
H          0.93400        2.31049        3.20605
H          0.87925        2.28711        1.47382
H         -1.35257        1.17283        1.48213
H         -1.47301       -1.03383        3.25905
H         -0.28789       -0.37957        4.42383
H         -1.94241       -0.57847        4.89952
H         -1.06976        3.54071        2.98385