18

C          1.06597       -0.08132        0.14749
C          0.53274        1.12145        0.90678
C          1.03369        2.46242        0.37726
C          0.49655        2.86606       -0.99138
O         -0.23861        3.85751       -1.09615
C          0.87144        2.07017       -2.23891
C          2.34258        1.96471       -2.45244
H          2.74618        1.11584       -2.99549
H          2.95153        2.85984       -2.38539
H          0.62909       -0.15765       -0.84395
H          0.79074       -1.01316        0.64602
H          2.15445       -0.03619        0.04768
H         -0.56285        1.10361        0.90482
H          0.84998        1.02210        1.95324
H          0.70144        3.23935        1.08267
H          2.12737        2.51456        0.37703
H          0.39263        1.09264       -2.22761
H          0.43866        2.57236       -3.10879