25

C          1.08367        0.12353       -0.15676
C          0.64051       -1.31361       -0.38222
C          1.10623       -2.23803        0.74788
C          0.56992       -1.83966        2.13356
C         -0.96861       -1.87051        2.22049
C         -1.57286       -3.27972        2.01547
C         -1.08671       -4.39610        2.98181
O         -1.66659       -4.19262        4.15886
O         -1.49935       -1.16412        3.35648
O         -0.76181       -1.57664        4.54467
H          0.67281        0.53455        0.77023
H          0.74219        0.76418       -0.97346
H          2.17516        0.18002       -0.10136
H         -0.44870       -1.35091       -0.49363
H          1.04851       -1.67297       -1.33363
H          0.81619       -3.26827        0.50925
H          2.20238       -2.23943        0.77885
H          1.01319       -2.50319        2.88475
H          0.93395       -0.84473        2.41170
H         -1.35543       -1.26837        1.39329
H         -2.66933       -3.21512        2.01622
H         -1.30761       -3.60503        0.99811
H         -1.30846       -5.33569        2.45177
H          0.01048       -4.40265        2.93175
H         -1.20516       -2.46321        4.64338