24

C          0.98328        0.15465       -0.03949
C          0.53797       -1.22115       -0.51461
C          1.02075       -2.34358        0.41354
C          0.45389       -2.24803        1.84522
C         -1.08514       -2.31615        1.90855
C         -1.74107       -3.54255        1.25856
C         -1.52027       -4.84768        1.94235
H         -2.14881       -5.69372        1.69078
H         -0.58512       -5.07627        2.42617
O          1.03926       -3.13182        2.81718
O          1.67640       -4.23957        2.12733
H          0.57141        0.40047        0.94357
H          0.64235        0.92866       -0.73219
H          2.07472        0.20275        0.02508
H         -0.55315       -1.24021       -0.61219
H          0.93525       -1.39520       -1.52114
H          0.75538       -3.30895       -0.03526
H          2.11723       -2.33560        0.44946
H          0.73115       -1.26350        2.23778
H         -1.41088       -2.23518        2.95261
H         -1.48751       -1.42906        1.40070
H         -2.82334       -3.36925        1.23061
H         -1.42298       -3.63857        0.21621
H          1.44259       -4.91975        2.79662