24

C          1.14114        0.60706       -0.32556
C          0.60482        0.48191       -1.71692
C          1.08151       -0.85191       -2.31327
C          0.51382       -2.16714       -1.70772
O         -0.24882       -2.84483       -2.38870
C          0.94875       -2.69218       -0.28355
O          2.37071       -2.71099       -0.16219
O          2.82999       -3.69348       -1.14001
C          0.32687       -2.05918        0.98790
C         -1.13382       -1.65793        0.75671
H          0.62506       -0.21184        0.07668
H          0.78139        1.40747        0.31887
H          2.20926        0.40243       -0.20637
H         -0.49267        0.48618       -1.67301
H          0.92061        1.34788       -2.30341
H          0.76595       -0.84478       -3.36685
H          2.17393       -0.91007       -2.32436
H          0.60280       -3.73469       -0.24537
H          3.77807       -3.63669       -0.92693
H          0.40207       -2.72564        1.85367
H          0.94465       -1.23962        1.38884
H         -1.77663       -2.52995        0.87928
H         -1.45334       -0.86784        1.44407
H         -1.31767       -1.26850       -0.25166