17

C          1.02164       -0.19235       -0.06045
C          0.55728       -0.54451        1.34443
C          0.99049        0.48798        2.39005
C          0.46496        1.90429        2.13526
C         -1.05417        1.97439        2.10948
H          0.61247        0.76685       -0.39427
H          0.68796       -0.95265       -0.77260
H          2.11267       -0.13390       -0.10435
H         -0.53030       -0.66294        1.35356
H          0.97173       -1.52269        1.62078
H          0.65317        0.15258        3.37810
H          2.08589        0.51990        2.43023
H          0.83776        2.56730        2.92672
H          0.86736        2.29702        1.19677
H         -1.47314        1.64690        3.06494
H         -1.38398        3.00031        1.92168
H         -1.47563        1.34772        1.31665