25

C          0.97355        0.11949       -0.01037
C          0.54537       -1.11875       -0.78303
C          1.00876       -2.39922       -0.08643
C          0.43590       -2.54144        1.32802
C         -1.09875       -2.57528        1.34157
C         -1.66480       -3.80570        0.62622
C         -1.18608       -5.12567        1.22864
O         -1.71805       -5.31972        2.54166
O         -0.83879       -4.61756        3.46760
H          0.55294        0.13802        0.99991
H          0.63136        1.02540       -0.51455
H          2.06386        0.15177        0.07644
H         -0.54309       -1.11737       -0.90883
H          0.96188       -1.08507       -1.79490
H          0.73001       -3.26637       -0.69717
H          2.10370       -2.41389       -0.03377
H          0.85584       -3.44059        1.78900
H          0.78515       -1.72559        1.96899
H         -1.46127       -2.53532        2.37327
H         -1.50969       -1.67116        0.87863
H         -2.75864       -3.75881        0.66969
H         -1.39641       -3.77376       -0.43668
H         -1.56001       -5.94898        0.61195
H         -0.09516       -5.22446        1.23081
H         -1.54854       -4.29779        4.06149