13

C          1.07673       -0.00867       -0.03150
C          0.57102       -0.66611       -1.30771
C          1.06390       -2.10120       -1.45543
C          0.54628       -2.98025       -0.34541
O         -0.16729       -3.96212       -0.53429
H          0.71267       -0.53078        0.85812
H          0.72621        1.02489        0.03358
H          2.17087       -0.00763       -0.00401
H         -0.52501       -0.64261       -1.31931
H          0.91501       -0.07954       -2.16841
H          0.72364       -2.51456       -2.41126
H          2.15820       -2.14038       -1.44344
H          0.86703       -2.71257        0.67497