19

C          0.99638        0.05602        0.48685
C          0.51101        1.34958        1.05961
C          1.01541        2.50028        0.18178
C          0.46559        2.58566       -1.27535
O         -0.32738        3.49567       -1.52522
C          0.94415        1.61679       -2.44542
O          2.26530        1.55217       -2.44195
C          0.39373        0.16615       -2.49100
H          0.39635        0.04605       -0.38851
H          0.69750       -0.87895        0.95495
H          2.06132        0.05630        0.22693
H         -0.58661        1.33924        1.05002
H          0.83868        1.43931        2.09933
H          0.69379        3.42649        0.68327
H          2.10867        2.54447        0.16960
H          0.42874        2.06224       -3.31199
H         -0.64177        0.12702       -2.12271
H          0.40144       -0.27002       -3.49449
H          1.00678       -0.56615       -1.94180