23

C          0.96637        0.08447        0.13563
C          0.52451        0.08955       -1.31853
C          1.01159       -1.16032       -2.05667
C          0.46008       -2.47024       -1.46881
C         -1.07191       -2.56513       -1.55706
C         -1.64360       -2.46131       -2.97675
O         -1.29062       -3.57379       -3.79460
O          0.01092       -3.33548       -4.27105
O         -1.58078       -3.71285       -0.85363
O         -1.07835       -4.89285       -1.53426
H          0.55541       -0.77037        0.68075
H          0.62417        0.98730        0.64626
H          2.05786        0.03636        0.19878
H         -0.56641        0.17605       -1.37466
H          0.92165        0.98098       -1.81719
H          0.74077       -1.06958       -3.11440
H          2.10719       -1.19021       -2.03759
H          0.93252       -3.32270       -1.96849
H          0.77129       -2.58265       -0.42358
H         -1.48802       -1.72429       -0.98870
H         -2.73668       -2.45723       -2.91561
H         -1.35970       -1.52216       -3.46712
H         -1.50858       -5.54946       -0.94565