25

C          0.93654        0.10727       -0.08510
C          0.49793       -1.34506       -0.18571
C          0.98597       -2.16727        1.01063
C          0.43893       -1.67497        2.35807
C         -1.10075       -1.70961        2.43435
C         -1.69388       -3.11826        2.19385
O         -1.25937       -4.11250        3.11498
C         -3.21396       -3.10541        2.20096
O         -1.60022       -1.09131        3.62609
O         -1.01084       -1.73846        4.72266
H          0.52835        0.59339        0.80617
H          0.58951        0.67505       -0.95174
H          2.02801        0.17123       -0.03902
H         -0.59293       -1.39547       -0.27746
H          0.89551       -1.78182       -1.10850
H          0.71661       -3.21889        0.85762
H          2.08144       -2.14799        1.04153
H          0.88221       -2.27803        3.15836
H          0.78943       -0.65708        2.56692
H         -1.48766       -1.06215        1.63942
H         -1.38553       -3.47362        1.20542
H         -0.33868       -3.92365        3.38792
H         -3.59655       -2.47795        1.38975
H         -3.60016       -4.12112        2.06955
H         -3.60629       -2.73339        3.15163