19

C          1.09351        0.07316       -0.00821
C          0.62715       -1.24972       -0.59549
C          1.08432       -2.43394        0.25883
C          0.53904       -2.40018        1.69983
C         -1.01510       -2.37049        1.79908
C         -1.54613       -3.67568        1.17995
O         -2.26102       -4.54436        1.68193
O         -1.31373       -2.24060        3.07928
H          0.70536        0.23006        1.00278
H          0.74650        0.90956       -0.61884
H          2.18649        0.10077        0.03979
H         -0.46250       -1.24370       -0.70319
H          1.02274       -1.35989       -1.61110
H          0.79820       -3.37067       -0.23217
H          2.18104       -2.44909        0.29528
H          0.94308       -3.27184        2.23461
H          0.96878       -1.52523        2.20958
H         -1.38081       -1.59669        1.11121
H         -1.26750       -3.80628        0.12018