23

C          0.95325       -0.14149       -0.11234
C          0.51372       -0.94475        1.10450
C          0.98690       -0.30847        2.42235
C          0.40249        1.10504        2.65106
C         -1.13514        1.12009        2.69240
C         -1.73971        0.26319        3.80235
O         -1.55585        0.89739        5.06486
O         -0.64936        0.09941        5.78589
O          0.90184        1.86170        3.76409
O          1.60631        0.97645        4.67014
H          0.54085        0.87166       -0.10579
H          0.60915       -0.61700       -1.03445
H          2.04435       -0.06572       -0.14442
H         -0.57671       -1.05430        1.09529
H          0.91543       -1.96139        1.02619
H          0.72103       -0.97640        3.25096
H          2.08292       -0.26733        2.43208
H          0.70151        1.71947        1.79654
H         -1.46752        2.15592        2.82936
H         -1.53268        0.78427        1.72840
H         -2.82011        0.19019        3.64099
H         -1.36282       -0.76664        3.79164
H          0.90296        0.93688        5.36312