21

C          1.09556       -0.17495       -0.02090
C          0.63298       -0.52872        1.38249
C          1.01801        0.53251        2.41409
C          0.45057        1.93815        2.13889
O         -0.98163        1.95158        2.19643
O         -1.48606        1.49568        0.91412
C          0.87507        2.92463        3.18798
H          0.89834        3.96845        2.88559
C          0.54795        2.63597        4.61443
H          0.70064        0.78762       -0.35608
H          0.75482       -0.92989       -0.73400
H          2.18757       -0.12240       -0.06119
H         -0.45005       -0.69031        1.39809
H          1.08111       -1.48601        1.67528
H          0.65457        0.16529        3.38146
H          2.11321        0.58159        2.48248
H          0.79957        2.32189        1.17274
H         -2.31403        1.11411        1.27063
H         -0.53765        2.60156        4.74665
H          0.97177        1.68049        4.93323
H          0.95259        3.41388        5.26478