20

C          1.22965        0.12565       -0.05345
C          0.88676       -0.75597       -1.24533
C          1.12772       -2.24676       -0.99018
C          0.55530       -2.82491        0.31686
C         -0.93211       -2.80174        0.49663
H         -1.33441       -3.52997        1.19786
C         -1.73277       -1.54736        0.37307
O          0.96287       -4.18815        0.42632
H          0.80085       -0.23373        0.88485
H          0.84568        1.13827       -0.20423
H          2.31324        0.17428        0.07887
H         -0.14350       -0.58249       -1.55929
H          1.48007       -0.43546       -2.10925
H          0.75570       -2.82563       -1.84696
H          2.21331       -2.41746       -0.98919
H          1.01548       -2.32811        1.17652
H         -1.35827       -0.78200        1.05816
H         -1.73715       -1.16272       -0.64543
H         -2.78101       -1.73057        0.61928
H          0.63607       -4.65994       -0.36482