19

C          1.07563       -0.14008        0.02177
C          0.61277        1.04428        0.85571
C          1.08724        2.36992        0.25528
C          0.53479        2.62284       -1.15471
C         -0.99130        2.62515       -1.20864
C         -1.54867        3.75431       -0.38385
O         -2.25456        4.64719       -0.85041
H          0.68727       -0.09577       -1.00038
H          0.72577       -1.07848        0.45738
H          2.16842       -0.16026       -0.03118
H         -0.47889        1.02669        0.94739
H          0.99795        0.94897        1.87656
H          0.79979        3.19166        0.92140
H          2.18327        2.38635        0.22289
H          0.92252        3.57847       -1.52626
H          0.91650        1.86087       -1.84467
H         -1.32982        2.73832       -2.24282
H         -1.41718        1.68673       -0.84004
H         -1.31278        3.73548        0.69298