26

C          1.10925       -0.20523       -0.05572
C          0.70882        0.05900        1.37990
C          1.25401        1.40797        1.84757
C          0.55048        2.61060        1.20820
C         -0.99135        2.60727        1.25912
C         -1.65614        2.65994        2.60415
H         -2.66769        3.05495        2.61127
C         -1.36991        1.69811        3.71019
O         -1.67455        0.35315        3.33969
O         -3.10702        0.30369        3.07907
O         -1.50964        3.67605        0.43173
O         -1.00899        4.93905        0.96042
H          0.70336        0.56366       -0.72029
H          0.72318       -1.17154       -0.38689
H          2.19830       -0.20400       -0.14732
H         -0.37943        0.00683        1.43476
H          1.07833       -0.73683        2.03561
H          1.21631        1.47582        2.93478
H          2.32634        1.46295        1.62447
H          0.94495        3.52869        1.66078
H          0.85587        2.67240        0.15444
H         -1.36243        1.71292        0.75007
H         -0.32643        1.73900        4.02171
H         -1.93762        1.94824        4.60903
H         -3.08420       -0.51785        2.54491
H         -1.40646        5.50031        0.27120