20

C          0.99414       -0.06407       -0.19750
C          0.55277       -1.39074        0.40266
C          1.02315       -1.55317        1.85057
C          0.45169       -0.50687        2.81579
C         -1.07817       -0.47001        2.86343
C         -1.66748       -1.78195        3.36001
H          0.58118        0.78659        0.35266
H          0.65014        0.01872       -1.23287
H          2.08432        0.01743       -0.18771
H         -0.53563       -1.48175        0.33570
H          0.96324       -2.20971       -0.19921
H          0.75786       -2.56021        2.19957
H          2.11684       -1.50701        1.88413
H          0.84144       -0.70082        3.82072
H          0.82280        0.48963        2.54086
H         -1.39434        0.33957        3.53130
H         -1.49138       -0.22940        1.87917
H         -1.30577       -2.00810        4.36662
H         -2.75956       -1.72166        3.39005
H         -1.40461       -2.61764        2.70478