20

C          1.01852       -0.13904       -0.07596
C          0.52160       -0.44009        1.33245
C          1.02068        0.57526        2.36476
C          0.54187        1.96264        2.06237
C         -0.25891        2.68088        2.86648
C         -0.79437        4.02518        2.48284
O         -2.22391        4.01099        2.53822
O         -2.67004        3.14969        1.44561
H          0.64916        0.82546       -0.43733
H          0.66937       -0.90121       -0.77761
H          2.11253       -0.11729       -0.10166
H         -0.57516       -0.46985        1.33392
H          0.86668       -1.43938        1.62358
H          0.68662        0.26120        3.36106
H          2.11657        0.57784        2.38312
H          0.83872        2.39106        1.10808
H         -0.58336        2.27751        3.81988
H         -0.43920        4.77199        3.19930
H         -0.47145        4.34134        1.48375
H         -3.61727        3.18473        1.66617