25

C          0.95785        0.03870       -0.20935
C          0.52463       -1.41911       -0.22476
C          0.99189       -2.14993        1.03506
C          0.41928       -1.53297        2.31737
C         -1.11601       -1.55912        2.34530
C         -1.66910       -2.99040        2.37332
C         -1.18090       -3.82648        3.56292
O         -1.72235       -3.35272        4.79455
O         -0.96536       -2.23091        5.17299
O         -3.09590       -2.96569        2.34021
H          0.54237        0.58058        0.64602
H          0.61421        0.55266       -1.10900
H          2.04861        0.10687       -0.15526
H         -0.56454       -1.47988       -0.32805
H          0.93519       -1.91807       -1.10849
H          0.71462       -3.20858        0.96475
H          2.08692       -2.13624        1.08491
H          0.83930       -2.05953        3.17999
H          0.76946       -0.50302        2.43866
H         -1.48992       -0.97773        3.19479
H         -1.53389       -1.02387        1.48399
H         -1.37127       -3.50233        1.45035
H         -1.54743       -4.85039        3.44509
H         -0.08854       -3.89445        3.61627
H         -3.40018       -2.42815        3.10134