22

C          1.09595        0.16434        0.03834
C          0.65314        0.40127       -1.39657
C          1.13695       -0.71797       -2.32254
C          0.57561       -2.09628       -1.94181
C         -0.95637       -2.16143       -2.03359
C         -1.52306       -1.84704       -3.42371
O         -1.20905       -2.87268       -4.36369
O          0.11710       -2.65931       -4.77538
O         -1.41761       -3.44001       -1.59388
H          0.68617       -0.76665        0.44117
H          0.75316        0.97320        0.68709
H          2.18747        0.10695        0.09215
H         -0.43792        0.49566       -1.43686
H          1.05057        1.35985       -1.74825
H          0.86713       -0.46439       -3.35398
H          2.23237       -0.75586       -2.30856
H          1.03559       -2.87401       -2.56108
H          0.89044       -2.37237       -0.92836
H         -1.38348       -1.44512       -1.32202
H         -2.61540       -1.82368       -3.35875
H         -1.21182       -0.86485       -3.79693
H         -0.98232       -4.11907       -2.14934