16

C          0.90532       -0.05307       -0.06757
C          0.40970       -0.54976        1.28777
C          0.90973        0.30436        2.45657
C          0.44549        1.71533        2.31581
C         -0.35652        2.39033        3.14773
C         -0.71928        3.70556        2.75845
O         -0.94432        4.76714        2.30505
H          0.53174        0.95006       -0.29719
H          0.55748       -0.71140       -0.86765
H          1.99914       -0.02177       -0.09102
H         -0.68735       -0.57129        1.28449
H          0.75036       -1.58081        1.43349
H          0.56826       -0.12935        3.40321
H          2.00583        0.30362        2.47577
H          0.78405        2.23689        1.42032
H         -0.74227        1.96451        4.06776