25

C          0.95743        0.04745        0.12621
C          0.51891        1.45510       -0.24376
C          1.01225        1.84571       -1.63903
C          0.46358        0.93793       -2.74975
C         -1.06758        0.95810       -2.84216
C         -1.66012        2.36517       -3.08216
O         -1.30246        2.80687       -4.41760
O          0.03846        3.38058       -4.35538
C         -3.22578        2.37364       -3.01809
O         -3.62785        2.05974       -1.78932
H          0.54469       -0.69908       -0.55892
H          0.61455       -0.21272        1.12988
H          2.04870       -0.02860        0.09505
H         -0.57258        1.53202       -0.18062
H          0.91419        2.16585        0.49049
H          0.74481        2.89119       -1.82731
H          2.10762        1.81873       -1.66192
H          0.90762        1.21379       -3.71080
H          0.79287       -0.09452       -2.58651
H         -1.37176        0.28811       -3.65514
H         -1.47266        0.52072       -1.92204
H         -1.28617        3.09760       -2.35590
H          0.32479        3.02854       -5.21904
H         -3.50792        3.36827       -3.39960
H         -3.55271        1.74252       -3.85882