24

C          1.45272        0.06770       -0.48445
C          0.83393       -1.16559       -1.10717
C          1.11670       -2.48701       -0.38214
C          0.52777       -2.75299        1.00495
C         -0.98667       -2.65590        1.19395
O         -1.59538       -3.61335        1.65904
C         -1.76807       -1.41074        0.81290
C         -1.56256       -0.15378        1.64431
O         -0.25344        0.37386        1.74892
O          0.42789       -0.34496        2.81495
H          1.42648        0.01666        0.58616
H          0.92065        0.97646       -0.79205
H          2.51423        0.16466       -0.70635
H         -0.23080       -1.01280       -1.23573
H          1.19996       -1.23774       -2.13507
H          0.77955       -3.30125       -1.03267
H          2.20670       -2.58826       -0.29681
H          0.77894       -3.79658        1.26022
H          1.06037       -2.20868        1.77657
H         -1.72254       -1.24101       -0.25929
H         -2.82696       -1.67562        0.93687
H         -2.13771        0.64180        1.15665
H         -1.96701       -0.28809        2.64743
H          1.30334       -0.39434        2.38121