19

C          1.05103       -0.16933        0.08223
C          0.52633        0.26041        1.44354
C          0.78912        1.74071        1.68115
C          0.00960        2.56798        0.65841
C         -0.41571        3.86123        1.24616
C         -0.49307        5.10296        0.41933
O          0.61863        4.84200        1.28854
H          0.66121        0.46051       -0.72433
H          0.75341       -1.19662       -0.13543
H          2.14262       -0.09874        0.05792
H         -0.55428        0.07837        1.50037
H          0.99147       -0.33581        2.23530
H          0.49690        2.00201        2.70593
H          1.86208        1.96166        1.60177
H          0.62885        2.71839       -0.23649
H         -0.89071        2.03570        0.32875
H         -1.09737        3.75094        2.08140
H         -1.17346        5.88464        0.72872
H         -0.35819        5.00033       -0.65115