22

C          1.07408        0.10982        0.10936
C          0.59827        0.03338       -1.33186
C          1.05143       -1.24773       -2.04322
C          0.52425       -2.53845       -1.40521
C         -0.97417       -2.61694       -1.33125
O         -1.67722       -1.82664       -2.30753
C         -1.86020       -3.23310       -2.39512
C         -1.35270       -3.84814       -3.64813
H          0.67885       -0.71501        0.70940
H          0.73185        1.04044        0.57111
H          2.16655        0.08056        0.15739
H         -0.49290        0.12256       -1.34854
H          0.98133        0.89929       -1.88416
H          0.73279       -1.20322       -3.09204
H          2.14817       -1.28018       -2.05769
H          0.92493       -3.40538       -1.94270
H          0.92677       -2.62580       -0.38875
H         -1.34100       -2.60667       -0.31089
H         -2.83152       -3.61738       -2.10888
H         -1.17921       -4.91511       -3.48484
H         -2.09896       -3.74391       -4.44200
H         -0.42090       -3.39671       -4.00268