16

C          0.98957        0.13486       -0.00819
C          0.53139       -1.02182       -0.88527
C          0.92674       -2.38829       -0.31874
C          0.38145       -2.68162        1.07923
O         -1.04186       -2.80975        1.07476
O         -1.58862       -1.46578        1.19560
H          0.59159        0.06628        1.00785
H          0.64783        1.08695       -0.42346
H          2.08153        0.15732        0.05860
H         -0.55271       -0.97312       -1.03359
H          0.97693       -0.90787       -1.88089
H          0.56542       -3.16036       -1.00936
H          2.02088       -2.46083       -0.29768
H          0.77770       -3.64718        1.41198
H          0.70639       -1.94654        1.82339
H         -2.38699       -1.63103        0.65736