19

C          0.98282        0.12868        0.11428
C          0.51292        0.04003       -1.33098
C          0.92837       -1.27454       -1.99752
C          0.41102       -2.54851       -1.30020
O         -1.01000       -2.65462       -1.42347
O         -1.57176       -1.85857       -0.41174
C          0.98410       -3.80628       -1.96101
O          2.40297       -3.86020       -1.91040
H          0.58645       -0.68417        0.72873
H          0.64974        1.06520        0.56840
H          2.07534        0.08551        0.16499
H         -0.57180        0.17527       -1.38853
H          0.94941        0.87296       -1.89544
H          0.56630       -1.26156       -3.03358
H          2.02315       -1.28423       -2.04007
H          0.71717       -2.57036       -0.24728
H          0.60363       -4.69437       -1.44219
H          0.65451       -3.89101       -3.00247
H          2.76358       -3.16103       -2.48975