9

C          0.91146        0.04877       -0.00027
C          0.41374        0.72139        1.26221
O          0.87910        2.06213        1.31381
H          0.56918        0.59254       -0.88688
H          0.55424       -0.98314       -0.05882
H          2.00596        0.04529       -0.03174
H         -0.67985        0.73885        1.28089
H          0.76572        0.19291        2.15333
H          1.85123        2.03539        1.30862