7

C          0.96594        0.06153        0.08694
O          0.47449        0.11301        1.42021
O          0.99019       -1.08371        2.06732
H          0.60697        0.94299       -0.45027
H          0.59495       -0.83665       -0.41519
H          2.05977        0.06768        0.08984
H          0.58535       -0.91356        2.93689