17

C          1.06890       -0.07038       -0.03616
O          0.51429        0.50154        1.13691
O          1.12222       -0.22844        2.24784
C          0.59751        0.36148        3.43948
C          1.06445        1.78971        3.59080
C          0.19130        2.80853        3.68620
C          2.54750        2.02147        3.60189
H          0.72870        0.50965       -0.89755
H          0.71969       -1.10095       -0.13836
H          2.16224       -0.04273        0.00001
H         -0.49618        0.28118        3.42231
H          0.94954       -0.23434        4.28882
H          0.52612        3.83653        3.77211
H         -0.88007        2.63732        3.65386
H          3.01191        1.49421        4.44097
H          3.00312        1.66832        2.67096
H          2.79083        3.08496        3.70102