17

C          0.89417        0.01450        0.00517
O          0.34204        0.15623       -1.29314
O          0.94792        1.36853       -1.84181
C          0.39998        1.52204       -3.15203
C          0.87594        0.41273       -4.03969
C          0.05312       -0.43220       -4.68323
C          0.52774       -1.56186       -5.53263
H          0.55336       -0.93568        0.42375
H          0.54384        0.83169        0.64065
H          1.98753        0.01033       -0.03860
H         -0.69279        1.57313       -3.08785
H          0.75510        2.47804       -3.55018
H          1.95273        0.29278       -4.11826
H         -1.02352       -0.32172       -4.57585
H          0.15085       -2.50978       -5.13655
H          0.15502       -1.43891       -6.55349
H          1.62009       -1.61715       -5.56935