12

O          1.06298       -0.59070        0.25768
C          1.92236        0.16221       -0.02446
C          2.88512        1.20238       -0.41426
C          2.62621        1.53505       -1.88081
C          2.62621        2.41693        0.47247
H          3.92649        0.87365       -0.29107
H          1.56197        1.74810       -2.03722
H          3.20164        2.40306       -2.21424
H          2.88230        0.68239       -2.52109
H          2.88230        2.19505        1.51543
H          3.20164        3.29029        0.15334
H          1.56197        2.68030        0.45035