9

O          0.89198        0.11183        0.03364
C          2.10583        0.05778        0.03212
C          2.99342        1.18120        0.02783
C          4.22645        0.78563        0.02136
C          4.21071       -0.66591        0.02232
C          2.95459       -1.15319        0.03064
H          5.10575        1.41143        0.02165
H          5.10947       -1.26623        0.01706
H          2.59255       -2.16308        0.03400