12

O          1.00307       -0.02995        0.26275
C          2.22234        0.01475        0.10500
C          2.86510        1.07423       -0.69824
C          3.91048        0.62517       -1.66102
C          2.00512        2.22321       -1.10284
H          2.89360       -0.75235        0.51748
H          3.41909        0.12348       -2.50079
H          4.47500        1.47621       -2.05487
H          4.61866       -0.07183       -1.20442
H          1.31442        1.89152       -1.88341
H          1.42516        2.60681       -0.25781
H          2.60758        3.04654       -1.49828