14

O          0.94212       -0.08233       -0.01848
C          2.17016       -0.08271        0.02949
C          2.95161        0.12288        1.30383
C          3.83384       -1.06351        1.54873
C          5.16902       -0.98504        1.66149
C          6.04776       -2.16379        1.92621
H          2.76865       -0.19256       -0.89121
H          3.52752        1.04797        1.20140
H          2.25308        0.24036        2.13791
H          3.33973       -2.02853        1.65816
H          5.66903       -0.02225        1.57285
H          6.76859       -2.28077        1.11166
H          6.59970       -2.01656        2.85951
H          5.47373       -3.09167        2.01153