13

O          1.09096        0.18648        0.00770
C          2.31760        0.05607       -0.03960
C          3.09661       -1.18970        0.38632
O          3.87151       -1.57300       -0.61356
C          3.98116       -0.83817        1.58887
C          2.12638       -2.31103        0.76364
H          2.93573        0.91271       -0.36216
H          3.37118       -0.48299        2.42821
H          4.55193       -1.70715        1.94373
H          4.70214       -0.04192        1.36018
H          1.48132       -1.99315        1.59297
H          1.46335       -2.57964       -0.06881
H          2.64733       -3.22090        1.08634