12

O          1.03758       -0.02652       -0.08941
C          2.26407       -0.03298       -0.06204
C          3.08625       -1.28914        0.07247
C          3.96127       -1.52019       -1.14804
C          5.00044       -0.43902       -1.30044
O          6.20805       -0.64875       -1.24812
H          2.82814        0.91285       -0.12166
H          3.68782       -1.20578        0.98337
H          2.39859       -2.13362        0.19647
H          4.48143       -2.48005       -1.05055
H          3.36467       -1.55004       -2.06551
H          4.61873        0.57964       -1.48197