19

O          1.00327        0.10311        0.01075
C          2.23398        0.08245        0.06535
C          3.00547       -0.49082        1.22306
C          3.91367       -1.62533        0.75783
C          4.99766       -1.16092       -0.23022
C          5.89510       -0.03266        0.33808
O          6.62004       -0.52857        1.32469
C          6.86163        0.43913       -0.75247
H          2.83176        0.52572       -0.74855
H          3.56812        0.32138        1.69259
H          2.29950       -0.85962        1.97243
H          4.39048       -2.08269        1.63356
H          3.31492       -2.41406        0.28640
H          5.59221       -2.02917       -0.54892
H          4.51250       -0.80330       -1.14876
H          5.24876        0.83631        0.51808
H          6.29859        0.83238       -1.60688
H          7.50457        1.24738       -0.38298
H          7.50157       -0.37183       -1.11992