16

O          1.04291        0.02973        0.01643
C          2.27519        0.03787       -0.01947
C          3.06505        0.46591       -1.22550
C          3.99964        1.62436       -0.87303
C          5.02816        1.27189        0.23246
O          5.82800        0.32491       -0.22308
C          5.88687        2.50651        0.53462
H          2.85944       -0.31684        0.84570
H          3.62107       -0.40160       -1.59525
H          2.37020        0.77202       -2.01423
H          4.50438        1.96561       -1.78900
H          3.39139        2.47380       -0.53007
H          4.45753        1.10452        1.15536
H          5.25067        3.33061        0.87841
H          6.61039        2.29709        1.33217
H          6.43849        2.85950       -0.34527