9

O          1.05619        0.16726       -0.02040
C          0.40002       -0.40442       -1.07099
H          0.97673       -1.07963       -1.68300
C         -1.01945       -0.26570       -1.14199
C         -1.77922        0.04448       -0.07928
H          2.00563       -0.03669       -0.01651
H         -1.49077       -0.47923       -2.09670
H         -2.85717        0.09439       -0.15304
H         -1.32768        0.23783        0.88798