16

O          1.04854       -0.11702       -0.06488
C          0.43160       -0.36575        1.13758
H          1.00775       -0.02458        1.98670
C         -1.06829       -0.47641        1.18158
O         -1.64609        0.84075        1.06935
O         -1.16010        1.63574        2.19990
C         -1.58542       -1.30622       -0.00222
C         -1.55628       -1.13110        2.48177
H          1.98714        0.12843        0.04033
H         -1.46962        2.49393        1.86130
H         -1.22522       -2.34088        0.04298
H         -2.68140       -1.32463       -0.01780
H         -1.27568       -0.87922       -0.96311
H         -1.20573       -2.16427        2.57633
H         -1.21853       -0.58031        3.36693
H         -2.65248       -1.13143        2.52135