14

O          1.29055        0.11750       -0.13086
C          0.51209        1.33088       -0.08837
C          0.30758        2.02666        1.26526
O          0.47253        3.33057        0.63845
C          1.13560        2.69143       -0.49798
C          2.62917        2.96398       -0.43168
H          2.21391        0.36918        0.04333
H         -0.43910        1.16141       -0.60948
H         -0.68132        1.90387        1.71410
H          1.08183        1.85759        2.02089
H          0.72596        3.06024       -1.44573
H          3.16587        2.39391       -1.19486
H          2.82176        4.02777       -0.61468
H          3.05317        2.71641        0.54710