13

O          0.97879        0.00810        0.03271
C          0.40895        1.20713       -0.29163
C          1.07410        2.33314       -0.59622
C          0.33302        3.59633       -0.93791
C          2.57296        2.40413       -0.61542
H          1.94606        0.09857        0.00824
H         -0.67190        1.12857       -0.27038
H          0.58881        4.39411       -0.23277
H          0.58881        3.92985       -1.94907
H         -0.75340        3.45865       -0.90067
H          2.97860        2.16250        0.37293
H          2.97860        1.69721       -1.34718
H          2.93125        3.40221       -0.88540