11

O          0.99593       -0.05187       -0.06379
C          0.38602       -1.24532        0.21219
C          1.02811       -2.38901        0.47667
C          0.33319       -3.62241        0.76189
C          0.96809       -4.77044        1.02737
H          1.96045       -0.17485       -0.03535
H         -0.69195       -1.13752        0.18727
H          2.11407       -2.41711        0.48317
H         -0.75535       -3.60881        0.75874
H          0.40739       -5.67637        1.23686
H          2.05076       -4.84182        1.04387