7

O          1.07098       -0.23487        0.06119
C          0.57224        0.26363       -1.18023
C          0.83820        1.70102       -1.30727
O          1.04352        2.85956       -1.35722
H          2.01622       -0.00338        0.10125
H          1.02117       -0.32908       -1.98439
H         -0.50756        0.09430       -1.20271