9

O          1.02200        0.00643       -0.09220
C          0.36055       -1.02281        0.54221
C          1.00797       -2.02049        1.15717
C         -1.13409       -1.01708        0.53868
O         -1.80377       -0.14319        0.00002
H          1.97879       -0.12939       -0.00848
H          0.48130       -2.82892        1.65547
H          2.09157       -2.06365        1.18377
H         -1.61320       -1.86241        1.05973