7

O          0.85753        0.01900        0.09619
C          0.30592       -0.95704        0.86413
O          0.96767       -1.76763        1.50190
C         -1.24306       -0.95159        0.85984
O         -1.82119       -0.05725        0.15618
O         -1.82563       -1.84297        1.56118
H          1.81599       -0.11322        0.20022