15

O          1.06921        0.20491        0.16625
C          0.61278        0.81623       -1.04252
C          1.11262        2.23266       -0.98005
C          1.89885        2.83865       -1.88853
C          1.06686        0.05020       -2.30235
O          0.49969       -1.25642       -2.38529
O          1.25917       -2.08309       -1.46102
H          1.99696       -0.04875        0.02247
H         -0.48240        0.80872       -0.99554
H          0.81496        2.79019       -0.09488
H          2.22815        3.86037       -1.74863
H          2.24169        2.33733       -2.78632
H          0.72764        0.58805       -3.19599
H          2.16054       -0.02719       -2.35417
H          0.64562       -2.83958       -1.47657