14

O          1.08949        0.03041       -0.08590
C          0.55572        0.01994        1.23501
C          1.07996       -1.14779        2.06170
C          0.09786       -1.78062        3.06736
C          0.72543       -3.09053        2.58380
O          1.13596       -2.42825        1.34677
H          2.04800       -0.13534       -0.02485
H          0.83703        0.96403        1.71378
H         -0.53496        0.00241        1.15043
H          2.07373       -0.92856        2.47557
H          0.24772       -1.52695        4.11746
H         -0.96155       -1.68649        2.80537
H          0.03446       -3.91967        2.41484
H          1.59556       -3.43586        3.15374