8

O          0.99396        0.05679       -0.03255
C          0.53977        1.36907        0.24827
C          1.04234        1.82507        1.59798
O          1.74844        2.81733        1.75765
H          1.96468        0.10045       -0.10808
H          0.88441        2.05234       -0.53320
H         -0.55345        1.36933        0.26459
H          0.72895        1.20509        2.45457