10

O          1.00413       -0.09112       -0.08798
C          0.53082       -1.41159        0.11375
C          1.05826       -2.27902       -0.97991
C          1.82498       -3.35814       -0.77090
H          1.97520       -0.13825       -0.07070
H          0.85277       -1.75142        1.10326
H         -0.56248       -1.39832        0.09299
H          0.77780       -2.00965       -1.99597
H          2.17282       -3.96717       -1.59917
H          2.11508       -3.65962        0.23080