14

O          0.87036        0.09729        0.03225
C          0.48253       -0.71999        1.13098
C          0.97171       -2.16892        0.96204
C          2.46958       -2.27802        0.84032
H          2.94881       -3.23690        1.01497
H          3.02080       -1.58184        0.21772
C          0.47220       -3.01842        2.13181
H          1.83987        0.18186        0.06861
H          0.85514       -0.26622        2.05621
H         -0.61257       -0.70060        1.16915
H          0.55395       -2.56863        0.02994
H         -0.62278       -3.02759        2.16264
H          0.80999       -4.05689        2.04405
H          0.83116       -2.62897        3.09185