19

O          0.80894       -0.12587        0.03396
C          0.38038       -0.08583       -1.31724
C          0.96570        1.12186       -2.04230
C          2.49999        1.09698       -2.10756
C          3.05532       -0.10995       -2.87590
C          2.57417       -0.20306       -4.32575
O          3.14298        0.82873       -5.12827
O          2.34629        1.97117       -4.93809
H          1.78480       -0.15712        0.04427
H          0.65779       -1.02700       -1.80209
H         -0.71259       -0.03355       -1.32066
H          0.53853        1.17564       -3.04945
H          0.65691        2.04007       -1.52975
H          2.86280        2.02856       -2.55516
H          2.91783        1.09826       -1.09435
H          4.14990       -0.05211       -2.86242
H          2.78810       -1.03332       -2.34923
H          2.91891       -1.15337       -4.74638
H          1.48112       -0.21587       -4.41242