19

O          0.97407        0.01305        0.10947
C          0.49397       -0.85293       -0.90760
C          1.06055       -0.42356       -2.25410
C          2.59724       -0.41069       -2.32256
O          3.10156       -1.74909       -2.22308
O          3.16158       -2.04783       -0.84937
C          3.10180        0.14540       -3.66269
C          2.65658        1.57407       -3.93521
H          1.89878       -0.25563        0.29186
H          0.72753       -1.89089       -0.65631
H         -0.59777       -0.76744       -0.92945
H          0.66144       -1.08240       -3.03361
H          0.68310        0.58671       -2.43911
H          3.02773        0.20650       -1.52280
H          4.19901        0.10553       -3.67168
H          2.77737       -0.50840       -4.48143
H          2.98328        2.24419       -3.13382
H          3.08035        1.93066       -4.87808
H          1.56938        1.64973       -4.02582