10

O          0.97063        0.17847        0.09555
C          0.57971       -0.50959        1.27916
C          1.09730       -1.94411        1.31135
O          2.51684       -1.96596        1.46215
O          3.05184       -1.50574        0.24320
H          1.91769       -0.04601       -0.06145
H          0.95659        0.05945        2.13402
H         -0.51431       -0.50657        1.30831
H          0.68073       -2.45703        2.18397
H          0.81013       -2.50497        0.41459