21

O          0.95079       -0.21056        0.08932
O          0.52619        1.16343       -0.11501
C         -0.91026        1.15527       -0.13161
C         -1.39473        2.21249        0.85645
C         -0.96538        3.59503        0.38454
C         -1.48411        3.85216       -1.02998
O         -1.01205        2.84585       -1.93212
C         -1.39275        1.51457       -1.54212
C         -0.99248        5.21539       -1.50015
H          1.91008       -0.02150        0.05424
H         -1.29287        0.17146        0.16386
H         -2.48885        2.17665        0.93078
H         -0.98381        2.02813        1.85443
H          0.13150        3.64655        0.38695
H         -1.32874        4.36194        1.07592
H         -2.58114        3.84516       -1.04625
H         -0.95434        0.82741       -2.27348
H         -2.48402        1.42667       -1.61003
H         -1.35072        5.43949       -2.50915
H         -1.33784        6.00389       -0.82286
H          0.10250        5.24581       -1.53415