18

O          1.39003       -0.26647        0.08651
O          0.68471       -0.86463        1.20519
C         -0.73153       -0.78166        0.96442
C         -1.23834        0.60747        0.57690
C         -0.98240        0.92637       -0.89301
O         -1.46707       -0.11366       -1.74476
C         -0.89151       -1.39138       -1.46268
C         -1.21415       -1.82311       -0.04078
H          2.28509       -0.31471        0.47185
H         -1.17189       -1.03431        1.93715
H         -2.32721        0.61209        0.72614
H         -0.81029        1.38051        1.22230
H          0.06991        1.12644       -1.11249
H         -1.51634        1.84435       -1.15971
H          0.18524       -1.37859       -1.65774
H         -1.32684       -2.10733       -2.16721
H         -0.78635       -2.80812        0.17010
H         -2.30650       -1.90261        0.05102