12

O          1.14661        0.13907        0.02856
O          0.74159       -0.71019        1.13793
C         -0.70285       -0.71596        1.10492
C         -1.39865       -1.70982        2.04454
O         -2.35944       -0.69115        2.44226
C         -1.43472        0.32775        1.96112
H          2.10262       -0.05331        0.09258
H         -1.08785       -0.78363        0.07969
H         -1.87375       -2.56328        1.55440
H         -0.81133       -2.04997        2.90370
H         -0.86496        0.75680        2.79206
H         -1.94429        1.12082        1.40830