24

O          0.85300        0.06899        0.28813
O          0.40395       -0.95781       -0.63576
C         -0.99912       -0.77713       -0.85289
C         -1.41301        0.63005       -1.29457
C         -0.92210        0.96889       -2.69978
C          0.56449        1.29293       -2.75524
O         -1.29043       -0.03766       -3.64466
C         -0.94882       -1.38897       -3.32844
C         -1.42134       -1.78174       -1.92402
C          0.51350       -1.71392       -3.63656
H          1.78012        0.06449        0.00165
H         -1.49988       -1.02172        0.09140
H         -2.51201        0.66412       -1.29831
H         -1.07653        1.39538       -0.58735
H         -1.44797        1.87641       -3.02577
H          0.90822        1.37776       -3.78961
H          0.79098        2.20986       -2.20679
H          1.17405        0.52311       -2.29277
H         -1.52668       -1.99580       -4.03696
H         -1.05895       -2.78664       -1.68017
H         -2.51864       -1.81752       -1.93344
H          0.68379       -2.79336       -3.62005
H          0.79328       -1.32033       -4.61987
H          1.22244       -1.29677       -2.92444