15

O          1.05535       -0.10662       -0.00449
O          0.62665        0.36854        1.30134
C         -0.79561        0.36966        1.27744
C         -1.36910       -0.72526        2.15193
O         -2.66669       -0.26000        2.53928
C         -2.57245        1.16366        2.67683
C         -1.33583        1.62499        1.92717
H          2.01236        0.00644        0.15147
H         -1.19066        0.29104        0.25636
H         -1.45835       -1.67899        1.62353
H         -0.76962       -0.89305        3.05427
H         -2.49250        1.39989        3.74333
H         -3.48822        1.62189        2.29227
H         -0.61382        2.08614        2.61063
H         -1.58382        2.38630        1.17943