18

O          1.06120       -0.01982        0.28345
O          0.55666        1.34013        0.20771
C         -0.87971        1.27309        0.17431
C         -1.36762        2.68598       -0.15993
C         -0.95176        3.04681       -1.58596
C         -1.48394        2.00409       -2.56101
O         -1.03914        0.69334       -2.21618
C         -1.42180        0.30620       -0.88994
H          1.93853        0.18049       -0.10128
H         -1.22926        0.98256        1.17132
H         -2.46080        2.73295       -0.07653
H         -0.94834        3.41873        0.53827
H          0.14377        3.07189       -1.64480
H         -1.31620        4.04357       -1.85270
H         -1.12172        2.22044       -3.57066
H         -2.57947        2.01673       -2.59080
H         -1.04846       -0.70941       -0.72859
H         -2.51706        0.25725       -0.83926