21

O          1.04450       -0.25550        0.92490
O          0.48008        1.08393        0.89093
C         -0.94328        0.96286        0.74413
C         -1.46441        2.35022        0.36512
C         -1.04642        2.70601       -1.05737
O         -1.49163        1.72284       -1.99267
C         -1.00473        0.40125       -1.73409
C         -1.39561       -0.03879       -0.32198
C          0.48535        0.29245       -2.05156
H          1.79204       -0.06496        0.32125
H         -1.34841        0.67419        1.72101
H         -2.55917        2.35141        0.42706
H         -1.08078        3.11008        1.05461
H          0.03737        2.83809       -1.13812
H         -1.49694        3.65998       -1.34827
H         -1.52576       -0.25924       -2.43796
H         -1.02740       -1.04940       -0.11670
H         -2.49335       -0.09044       -0.27550
H          0.86073       -0.71521       -1.84980
H          0.66632        0.53085       -3.10383
H          1.09194        1.00474       -1.48771