8

O          0.94434       -0.07657       -0.10503
O          0.58261       -0.25175        1.29040
C         -0.78742       -0.26250        1.37604
C         -1.68515       -0.13886        0.39114
H          1.90516       -0.09490        0.04093
H         -1.07889       -0.39249        2.41151
H         -2.74709       -0.16605        0.60775
H         -1.38861       -0.00898       -0.64348