23

O          1.11094       -0.49654        0.05500
O          0.51639       -0.56067        1.37754
C         -0.90912       -0.51647        1.23321
C         -1.41660        0.90038        0.92217
C         -1.01446        1.49490       -0.43719
O         -1.64394        0.74236       -1.47995
O         -0.61656        0.25118       -2.30355
C         -1.49465        2.94423       -0.60425
C         -0.95348        3.89114        0.45450
C         -1.46814       -1.61622        0.33660
H          1.96120       -0.12423        0.32298
H         -1.27967       -0.74338        2.24028
H         -2.51231        0.89575        0.99752
H         -1.03854        1.54398        1.72385
H          0.07530        1.50738       -0.54538
H         -1.17771        3.29965       -1.59357
H         -2.59086        2.97945       -0.61598
H          0.14049        3.86347        0.47971
H         -1.26757        4.91660        0.24129
H         -1.32833        3.63968        1.45069
H         -1.20767       -2.60016        0.73812
H         -2.55911       -1.54521        0.27179
H         -1.05841       -1.59129       -0.67377