20

O          1.25586       -0.30081        0.59235
O          0.59959        0.78810        1.30453
C         -0.82235        0.66755        1.10914
C         -1.31354        1.40447       -0.16999
O         -0.95910        0.66856       -1.35411
O          0.37490        0.97182       -1.68799
C         -2.85541        1.45345       -0.18605
C         -0.81381        2.86188       -0.21574
C         -1.29958       -0.78305        1.24093
H          1.62478        0.24528       -0.13651
H         -1.24336        1.20600        1.96810
H         -3.25269        1.95586        0.70258
H         -3.21818        1.98723       -1.07259
H         -3.29357        0.45170       -0.24637
H         -1.18651        3.43426        0.64075
H          0.27905        2.92641       -0.20621
H         -1.14890        3.35800       -1.13425
H         -0.85821       -1.25175        2.12682
H         -2.38756       -0.83813        1.34168
H         -1.01013       -1.38807        0.37556