18

O          1.18919        0.13795       -0.73206
O          0.60962       -1.19693       -0.58770
C         -0.81030       -1.03896       -0.48376
C         -1.31695       -0.83108        0.96384
O         -0.96310        0.48160        1.43198
O          0.38171        0.46080        1.85049
C         -2.85687       -0.84054        0.96037
C         -0.82787       -1.93691        1.91205
O         -1.28746       -0.02344       -1.36190
H          1.64295        0.15253        0.13779
H         -1.22668       -1.98200       -0.85691
H         -3.25334       -1.79780        0.60526
H         -3.24945       -0.65554        1.96688
H         -3.26031       -0.04317        0.32556
H         -1.20003       -2.91882        1.60145
H          0.26527       -1.99420        1.94794
H         -1.16583       -1.74476        2.93680
H         -0.64632        0.70434       -1.23190