18

O          1.14312       -0.33168        0.59100
O          0.55052        0.94553        0.98877
C         -0.87396        0.82435        0.84483
C         -1.37743        1.08664       -0.61676
O         -0.99417        0.01779       -1.50989
O          0.36316        0.25169       -1.98152
C         -2.88657        1.03873       -0.67688
H         -3.39411        1.42280       -1.55539
H         -3.40878        0.27916       -0.10196
C         -0.91337        2.46520       -1.11330
O         -1.33163       -0.42554        1.36468
H          1.87524        0.05789        0.07732
H         -1.29358        1.59842        1.49858
H          0.63069       -0.68695       -1.98022
H         -1.30100        3.26919       -0.47639
H          0.17877        2.55009       -1.11851
H         -1.24568        2.65076       -2.14135
H         -0.97159       -1.07550        0.73575