24

O          1.13169        0.01123       -0.40908
O          0.56758       -1.32620       -0.51817
C         -0.86052       -1.20792       -0.49108
C         -1.39309       -0.94655        0.94488
C         -0.97517        0.35531        1.65894
C         -1.52940        1.54500        0.91147
C         -2.96118        2.02502        1.18735
C         -2.32929        3.38783        0.85278
O         -1.03765        2.85855        1.33585
C         -1.37562       -0.31199       -1.62620
H          1.96003       -0.25165        0.01384
H         -1.22491       -2.21012       -0.74754
H         -2.48915       -1.00948        0.93079
H         -1.04403       -1.77776        1.57412
H         -1.35177        0.33791        2.68991
H          0.11437        0.40601        1.74272
H         -1.31691        1.48140       -0.14472
H         -3.72121        1.64135        0.50575
H         -3.28663        1.92586        2.22685
H         -2.66594        4.25046        1.42459
H         -2.29576        3.62844       -0.22004
H         -1.20622       -0.78703       -2.59688
H         -2.44664       -0.10822       -1.52256
H         -0.83043        0.63191       -1.71857