24

O          1.18807       -0.27310       -0.56392
O          0.48591       -1.39128        0.05035
C         -0.93131       -1.14540        0.00606
C         -1.42092       -0.30254        1.19713
C         -0.86184        1.11649        1.19569
C         -1.82722        2.27140        0.98778
C         -0.94209        3.41381        1.44562
C         -0.21672        2.81128        2.63598
O         -0.22998        1.38835        2.45844
C         -1.43059       -0.61707       -1.33564
H          1.91646       -0.23490        0.08880
H         -1.36783       -2.14429        0.12931
H         -2.51864       -0.28970        1.19703
H         -1.11281       -0.81504        2.11813
H         -0.08551        1.23124        0.44183
H         -2.14933        2.37925       -0.05229
H         -2.71232        2.19863        1.62982
H         -1.47525        4.33489        1.68938
H         -0.21352        3.64873        0.65776
H         -0.72934        3.03231        3.57597
H          0.82064        3.15065        2.70743
H         -1.05907       -1.23548       -2.15786
H         -2.52564       -0.61990       -1.35979
H         -1.09555        0.40688       -1.52699