26

O          1.11310       -0.26679        0.12110
O          0.51185        1.04791        0.29740
C         -0.90013        0.85207        0.25919
C         -1.43207        0.70179       -1.13223
H         -2.44794        0.33031       -1.21334
C         -0.87826        1.39721       -2.34184
C         -1.19764        2.90075       -2.40088
C         -0.65842        3.76326       -1.23917
O          0.75137        4.05156       -1.29813
O          1.48218        2.84810       -1.65529
C         -1.33420        5.14236       -1.15437
C         -2.85006        5.10348       -1.03689
H          2.00600        0.05237       -0.09746
H         -1.17552       -0.00444        0.88045
H         -1.37206        1.71505        0.73795
H          0.18245        1.17560       -2.47693
H         -1.35639        0.93624       -3.21905
H         -0.83095        3.30605       -3.35197
H         -2.29062        2.96078       -2.43776
H         -0.86307        3.29818       -0.28017
H          1.91585        2.70853       -0.81478
H         -0.93625        5.65542       -0.26752
H         -1.03326        5.75787       -2.00962
H         -3.16291        4.49050       -0.18536
H         -3.24128        6.11463       -0.89093
H         -3.31960        4.70694       -1.94087