26

O          1.18158       -0.13907        0.30747
O          0.65201        1.19031        0.57724
C         -0.78343        1.10134        0.55623
C         -1.30280        1.01965       -0.90034
C         -0.98978       -0.25052       -1.70934
C         -1.48179       -1.57273       -1.09966
O         -2.91659       -1.67561       -1.17441
O         -3.47934       -0.69214       -0.26001
C         -0.89384       -2.82740       -1.76756
C          0.60128       -2.89230       -1.82762
H          1.09776       -3.85135       -1.90839
H          1.20147       -2.00937       -2.00984
C         -1.27303        0.10738        1.61541
H          2.04143        0.15869       -0.03783
H         -1.12526        2.07944        0.91716
H         -2.37538        1.23812       -0.93843
H         -0.83846        1.84956       -1.45521
H         -1.42987       -0.14186       -2.70960
H          0.09054       -0.25929       -1.86898
H         -1.18104       -1.67424       -0.06597
H         -4.39814       -0.77730       -0.53307
H         -1.23918       -3.69582       -1.18846
H         -1.31071       -2.95023       -2.77112
H         -0.96085        0.43352        2.61117
H         -2.35957        0.01173        1.63346
H         -0.82022       -0.88203        1.53754