20

O          1.10943        0.40141        0.10938
O          0.49655       -0.15597       -1.08981
C         -0.90819       -0.16086       -0.87155
C         -1.37921       -1.24878        0.04386
H         -2.41769       -1.14479        0.35567
C         -0.86120       -2.66857        0.01724
C         -1.38547       -3.44830       -1.20056
O         -0.75910       -3.02335       -2.41394
O         -1.74517       -2.24078       -3.14539
C          0.65818       -2.78815        0.14665
H          1.98972        0.02821       -0.04171
H         -1.22574        0.82235       -0.50992
H         -1.38566       -0.28097       -1.84124
H         -1.28439       -3.15276        0.91047
H         -1.13317       -4.50772       -1.08153
H         -2.47914       -3.38849       -1.27132
H         -1.13034       -1.53314       -3.41640
H          1.02387       -2.24845        1.02697
H          0.95526       -3.83680        0.25258
H          1.17913       -2.40546       -0.73491