18

O          0.99016       -0.04610       -0.09041
O          0.50584        1.32262       -0.23182
C         -0.92660        1.26643       -0.22462
C         -1.46445        0.37893       -1.36849
O         -2.22300       -0.57550       -1.16745
C         -1.05691        0.72860       -2.77857
C         -1.42813        0.75894        1.13298
C         -1.42713        2.70378       -0.41504
H          1.93780        0.17353       -0.03260
H         -1.44339        1.71333       -3.04960
H          0.03027        0.70453       -2.87654
H         -1.48664       -0.00385       -3.46835
H         -1.04680        1.37833        1.95188
H         -2.52320        0.75821        1.17491
H         -1.09132       -0.26533        1.32607
H         -1.06799        3.35453        0.39104
H         -1.05066        3.14441       -1.34461
H         -2.52135        2.74756       -0.43715