18

O          1.14389        0.13981       -0.07788
O          0.58762       -0.90422       -0.92643
C         -0.84984       -0.82563       -0.85089
C         -1.36354       -1.35780        0.49412
C         -0.96802       -0.49012        1.66063
O         -1.78028        0.13888        2.33714
C         -1.36599        0.58980       -1.13907
C         -1.35911       -1.75436       -1.97050
H          2.06277       -0.18571       -0.08477
H         -2.45875       -1.41675        0.48382
H         -0.97256       -2.36169        0.69441
H          0.10451       -0.45674        1.90726
H         -0.99501        0.95397       -2.10287
H         -2.46131        0.61108       -1.15383
H         -1.02948        1.30680       -0.38385
H         -0.99264       -1.42482       -2.95052
H         -0.99167       -2.77842       -1.83424
H         -2.45354       -1.78337       -2.00765