20

O          1.20056        0.07679       -0.34485
O          0.60731       -1.19274       -0.72384
C         -0.81822       -1.06489       -0.64148
C         -1.32360       -1.11186        0.81299
C         -0.92028        0.06650        1.71021
O         -1.54622        1.26049        1.23819
O         -0.51662        2.17808        0.96965
C         -1.40688       -0.14290        3.14072
C         -1.37506        0.07894       -1.48801
H          2.05733       -0.27005       -0.06296
H         -1.19041       -1.98274       -1.11248
H         -2.41936       -1.18263        0.78534
H         -0.95117       -2.03920        1.26808
H          0.16973        0.15937        1.75866
H         -1.01802       -1.07225        3.56739
H         -1.07375        0.69143        3.76827
H         -2.50089       -0.15625        3.18895
H         -1.11180       -0.06393       -2.54083
H         -2.46623        0.12692       -1.40753
H         -0.96533        1.05220       -1.21425