23

O          1.13264        0.13129        0.40917
O          0.55585        1.39353       -0.02188
C         -0.87057        1.26118       -0.03273
C         -1.38475        0.43712       -1.22393
C         -1.03721       -1.05890       -1.22676
O         -1.66615       -1.70522       -0.11466
O         -0.61817       -2.24121        0.73541
C         -1.59066       -1.76960       -2.43015
H         -1.04923       -2.65863       -2.74524
C         -3.07017       -1.77445       -2.62689
C         -1.44542        0.86058        1.32446
H          1.94820        0.19712       -0.10040
H         -1.23025        2.28209       -0.20884
H         -2.47614        0.55588       -1.22972
H         -1.00834        0.89382       -2.14949
H          0.04886       -1.20761       -1.23716
H         -1.05844       -2.02296        1.57738
H         -3.55450       -2.26943       -1.77949
H         -3.46022       -0.75706       -2.70837
H         -3.33610       -2.31447       -3.53743
H         -1.24856        1.63688        2.06924
H         -2.52741        0.70047        1.26599
H         -0.97868       -0.03524        1.72753