14

O          0.99160       -0.09271        0.00127
O          0.64539        0.29457       -1.35737
C         -0.73938        0.33527       -1.46794
C         -1.60686        0.04380       -0.47729
C         -1.23294        0.77742       -2.83350
O         -0.73981        2.08198       -3.16246
O         -1.36941        3.01942       -2.23564
O         -0.79077       -0.13512       -3.83284
H          1.95445       -0.03395       -0.11831
H         -2.67751        0.11111       -0.63983
H         -1.28452       -0.24862        0.51427
H         -2.32749        0.79553       -2.88300
H         -0.87021        3.80292       -2.52791
H          0.17255       -0.17214       -3.72063