26

O          1.16529        0.18700        0.11201
O          0.60404       -1.08534       -0.31337
C         -0.81926       -0.97552       -0.29423
C         -1.38287       -0.89486        1.09036
H         -2.42820       -0.61400        1.19173
C         -0.86396       -1.86368        2.11820
C         -1.31709       -3.31756        1.85731
O         -0.67588       -3.83425        0.67380
O         -1.71542       -4.04616       -0.32793
C         -0.86542       -4.26255        2.97286
C         -1.37940       -3.88967        4.34941
C         -1.35746        0.00108       -1.31941
H          2.08820       -0.09808        0.08473
H         -1.17195       -1.91268       -0.68864
H          0.22987       -1.80837        2.15979
H         -1.23524       -1.51264        3.08770
H         -2.41064       -3.35831        1.75714
H         -1.17178       -3.77323       -1.09301
H         -1.19675       -5.27887        2.72356
H          0.23116       -4.30783        2.98743
H         -2.47246       -3.85127        4.35946
H         -1.04902       -4.62985        5.08318
H         -0.99350       -2.91996        4.67561
H         -0.99139       -0.30176       -2.30798
H         -2.45201       -0.03771       -1.34244
H         -1.03150        1.02639       -1.14337