8

O          0.98850        0.00145       -0.13198
O          0.55760       -1.36481        0.14639
C         -0.86215       -1.30673        0.34873
C         -1.19702       -0.64869        1.61700
O         -1.46522       -0.13548        2.64286
H          1.92206       -0.12487        0.12249
H         -1.33045       -0.81513       -0.51126
H         -1.22411       -2.33965        0.36947