26

O          1.05230       -0.07332        0.29126
O          0.52512        0.29822       -1.01551
C         -0.90394        0.26718       -0.93151
C         -1.45569       -1.12376       -0.79088
H         -2.45991       -1.22561       -0.39078
C         -0.95166       -2.28191       -1.61407
C         -1.25834       -2.20938       -3.12833
C         -0.67378       -1.01738       -3.91773
O          0.73499       -1.04482       -4.17932
O          1.43994       -1.52364       -3.00348
C         -1.34195       -0.85761       -5.27957
C         -1.44721        1.33222        0.00467
H          1.97925       -0.17176        0.00964
H         -1.27000        0.64333       -1.87975
H          0.10603       -2.46355       -1.40789
H         -1.44976       -3.18583       -1.23107
H         -0.91005       -3.14159       -3.59086
H         -2.35259       -2.20052       -3.22794
H         -0.89993       -0.07916       -3.43707
H          1.80056       -0.68962       -2.71899
H         -2.43301       -0.83493       -5.19910
H         -1.02157        0.09397       -5.72370
H         -1.03485       -1.64938       -5.96667
H         -1.09595        2.31215       -0.34446
H         -2.54187        1.34361       -0.02429
H         -1.10750        1.21122        1.03360