18

O          1.21773        0.00778        0.47788
O          0.65504        1.32606        0.21703
C         -0.77038        1.21552        0.23690
C         -1.32061        0.62732       -1.08285
C         -0.85994       -0.80915       -1.34782
C         -2.85138        0.67558       -1.11280
C         -1.29654        0.47308        1.45994
O         -2.05651        0.97306        2.29114
H          2.08392        0.17602        0.06051
H         -1.13493        2.24809        0.32526
H         -0.94195        1.24405       -1.90997
H         -1.15933       -1.47636       -0.53363
H         -1.29473       -1.19930       -2.27247
H          0.22468       -0.86926       -1.46560
H         -3.21639        1.70173       -1.00300
H         -3.23354        0.28078       -2.05997
H         -3.28399        0.07189       -0.30789
H         -1.00086       -0.58437        1.54408