24

O          1.39236        0.48753        0.94674
O          0.70011       -0.59981        1.61569
C         -0.72755       -0.41313        1.52965
C         -1.25505        0.95797        1.03454
C         -0.87678        1.47375       -0.38544
C         -1.40109        0.82501       -1.69110
O         -2.23296        1.46771       -2.37834
C         -0.96372       -0.54774       -2.22966
C          0.52616       -0.87403       -2.11150
C         -1.26681       -1.47044        0.61508
H          2.03061       -0.06010        0.45036
H         -1.11259       -0.62622        2.53176
H         -2.35260        0.94486        1.10156
H         -0.92369        1.70549        1.77050
H         -1.29571        2.49605       -0.40613
H          0.19129        1.66392       -0.50223
H         -1.59729       -1.32189       -1.77619
H         -1.25975       -0.65396       -3.27667
H          0.96149       -0.56122       -1.16591
H          0.70339       -1.95603       -2.17662
H          1.10045       -0.36819       -2.88675
H         -0.97379       -2.51132        0.74025
H         -2.33360       -1.36626        0.38527
H         -0.68834       -1.23025       -0.23555