15

O          0.97510        0.22016       -0.01162
O          0.55545       -1.15623       -0.24450
C         -0.87297       -1.14279       -0.28731
C         -1.47455       -0.99539        1.08009
C         -2.95092       -0.75594        1.13262
C         -0.88630       -1.79777        2.19620
H          1.92781        0.01820        0.08163
H         -1.21333       -0.35781       -0.97078
H         -1.19065       -2.10683       -0.69907
H         -3.47686       -1.68454        0.88923
H         -3.26495       -0.43081        2.12910
H         -3.25523        0.01312        0.41629
H         -1.16565       -2.84817        2.07157
H          0.20481       -1.72689        2.21440
H         -1.25535       -1.45116        3.16613