25

O          1.25101        0.35391        0.23457
O          0.67256        1.11282       -0.86590
C         -0.75994        0.99289       -0.78971
C         -1.25652       -0.34907       -1.35874
C         -0.87713       -1.62980       -0.60373
C         -1.43972       -1.74677        0.82080
C         -2.98004       -1.57139        0.89142
O         -3.53966       -2.70981        0.49568
C         -3.41019       -1.31972        2.34244
C         -1.30047        1.44052        0.56850
H          1.99743       -0.01187       -0.26866
H         -1.12439        1.74897       -1.49755
H         -2.34433       -0.30532       -1.49405
H         -0.85140       -0.45161       -2.37520
H         -1.23363       -2.48925       -1.18627
H          0.21241       -1.73755       -0.57922
H         -1.11837       -2.70397        1.25388
H         -0.94542       -1.01269        1.46132
H         -3.24285       -0.64507        0.37765
H         -2.99726       -0.36605        2.69819
H         -4.50174       -1.24448        2.42441
H         -3.06325       -2.10344        3.02425
H         -1.03535        2.48556        0.75506
H         -2.38908        1.35586        0.62041
H         -0.85962        0.90354        1.40823