20

O          1.21268       -0.01497       -0.31203
O          0.59503        0.08900        1.00279
C         -0.81176        0.01467        0.79327
C         -1.38514        1.33593        0.39464
H         -2.42532        1.33732        0.08390
C         -0.84587        2.61281        0.97587
C         -1.29382        2.82030        2.43070
O         -0.65574        1.86063        3.28659
O         -1.68207        0.92354        3.71730
C         -0.84133        4.17761        2.94716
H          2.12344        0.10602       -0.00798
H         -1.04889       -0.76825        0.06677
H         -1.26777       -0.30692        1.72701
H          0.24786        2.62268        0.90134
H         -1.20749        3.44291        0.35423
H         -2.38788        2.75266        2.50293
H         -1.10735        0.13536        3.69361
H         -1.22846        4.99888        2.33873
H         -1.18048        4.31164        3.98015
H          0.25305        4.23383        2.96844