16

O          1.22166       -0.15153        0.07019
O          0.66405        0.71776        1.09489
C         -0.76663        0.63845        1.00444
C         -1.32140        1.40608       -0.20395
C         -0.90878        0.76082       -1.52156
O         -1.70206        0.20891       -2.28713
O         -2.74520        1.48770       -0.10773
C         -1.28063       -0.80015        1.08036
H          2.14512        0.15019        0.15564
H         -1.13796        1.14546        1.90596
H         -0.93035        2.42936       -0.21543
H          0.16301        0.80779       -1.76952
H         -3.09162        0.61057       -0.36497
H         -0.88537       -1.30821        1.96416
H         -2.37401       -0.83026        1.12490
H         -0.96525       -1.37964        0.20723