14

O          1.16308        0.09370        0.01982
O          0.69361        0.46352       -1.31853
C         -0.74367        0.30668       -1.31633
C         -1.10441       -1.10884       -1.09003
O         -1.36635       -2.25623       -1.02186
C         -1.34005        1.28839       -0.30167
C         -1.25569        0.67696       -2.71421
H          2.10806        0.02090       -0.20565
H         -1.00199        2.30807       -0.53190
H         -2.43460        1.28466       -0.30355
H         -1.00584        1.08557        0.72186
H         -0.90754        1.66814       -3.02073
H         -0.89421       -0.03572       -3.46548
H         -2.35265        0.66344       -2.74958