23

O          1.26054        0.24701       -0.31153
O          0.73436       -0.98147       -0.90137
C         -0.70185       -0.94196       -0.82547
C         -1.19175       -1.17046        0.62365
C         -0.88628       -0.06954        1.65879
C         -1.41261        1.32993        1.30539
O         -2.84066        1.40274        1.42543
O         -3.41474        0.63986        0.32656
C         -0.82200        2.39982        2.21328
C         -1.22655        0.23100       -1.59134
H         -2.28823        0.31671       -1.78968
H         -0.64457        1.14454       -1.65336
H          2.12638       -0.12141       -0.06345
H         -1.03562       -1.81747       -1.39549
H         -2.26605       -1.38978        0.62429
H         -0.72015       -2.09290        0.99197
H         -1.32149       -0.38092        2.61795
H          0.19649       -0.03883        1.82403
H         -1.11163        1.64238        0.30908
H         -4.33023        0.66565        0.62649
H          0.27220        2.39402        2.17154
H         -1.16530        3.38736        1.88222
H         -1.14924        2.27365        3.24832