26

O          0.68197       -0.91060        1.27275
O         -0.41906       -0.75912        2.17446
C         -1.55394       -0.40997        1.38551
C         -1.47336        1.03428        0.83394
C         -0.72119        1.36798       -0.45171
H         -1.25740        2.15080       -1.00182
C          0.78120        1.50410       -0.71140
O          1.32344        2.38617        0.28625
O          0.73648        3.70396        0.01173
C          1.74182        0.28787       -0.91371
C          1.10635       -0.87714       -1.66217
C         -1.90630       -1.46380        0.33990
H          0.93500        0.00115        1.28783
H         -2.34946       -0.43362        2.14062
H         -2.52320        1.31112        0.63607
H         -1.13875        1.71720        1.62315
H          0.86326        2.03003       -1.67314
H          1.01243        4.12761        0.84346
H          2.63971        0.61162       -1.46069
H          2.23238       -0.04494        0.00806
H          1.41995       -0.89280       -2.70789
H          1.35904       -1.84531       -1.21266
H          0.02317       -0.80126       -1.66617
H         -1.38993       -2.41241        0.51465
H         -2.98531       -1.64280        0.32764
H         -1.66362       -1.13228       -0.66871