20

O          0.94605        0.18018        0.23968
O          0.50654        0.21558       -1.14982
C         -0.90872        0.02853       -1.15266
C         -1.35191       -1.28618       -0.58809
H         -2.37033       -1.28326       -0.20405
C         -0.87925       -2.59542       -1.16643
O         -1.32746       -2.69774       -2.53436
O         -2.78975       -2.62340       -2.52475
C          0.65159       -2.70410       -1.18328
C         -1.41102       -3.79922       -0.36974
H          1.86543       -0.08268        0.04573
H         -1.36817        0.85564       -0.60207
H         -1.24422        0.10242       -2.19215
H         -2.89834       -2.60533       -3.49682
H          1.07106       -2.61229       -0.17454
H          0.97207       -3.66385       -1.60219
H          1.11108       -1.94981       -1.82813
H         -1.04670       -3.79631        0.66348
H         -2.50591       -3.82602       -0.34142
H         -1.09558       -4.73710       -0.84363