13

O          0.95211       -0.15992       -0.14067
O          0.50719        0.53482        1.06074
C         -0.92143        0.61995        0.99463
C         -1.40511        1.52062       -0.10308
H         -2.40430        1.33220       -0.49035
C         -0.89730        2.85717       -0.28903
C         -0.10721        3.47678        0.60445
H          1.88493        0.11533       -0.07396
H         -1.33682       -0.38742        0.90361
H         -1.26505        1.03312        1.94917
H         -1.21133        3.38361       -1.18596
H          0.24367        4.48545        0.44449
H          0.20862        2.98867        1.51894