17

O          1.15766        0.26922       -0.48101
O          0.50436       -0.92946       -0.99139
C         -0.91821       -0.76358       -0.84817
C         -1.39876       -1.21031        0.54570
O         -1.00776       -0.25806        1.53875
O          0.22508       -0.70417        2.05481
C         -2.92338       -1.32079        0.60153
C         -1.38703        0.63296       -1.26162
H          1.57376       -0.15177        0.30132
H         -1.33786       -1.46904       -1.57571
H         -0.97623       -2.19494        0.78796
H         -3.30071       -2.00605       -0.16436
H         -3.24654       -1.68629        1.58210
H         -3.40441       -0.34589        0.46784
H         -0.94419        0.91686       -2.22143
H         -2.47553        0.67066       -1.36412
H         -1.09267        1.39406       -0.53127