19

O          1.23443        0.01686        0.36158
O          0.63740        1.34097        0.25750
C         -0.79406        1.19074        0.25538
C         -1.32929        0.82764       -1.15145
C         -0.87144       -0.54772       -1.64274
C         -2.86008        0.89568       -1.19895
C         -1.28175        0.27439        1.37930
H          2.07124        0.24391       -0.08757
H         -1.16531        2.19763        0.48929
H         -0.93540        1.56825       -1.86111
H         -1.17272       -1.34070       -0.95173
H         -1.30848       -0.77815       -2.61954
H          0.21415       -0.58728       -1.76464
H         -3.21822        1.88861       -0.90783
H         -3.22842        0.68861       -2.20901
H         -3.31836        0.15849       -0.53201
H         -0.86561        0.58940        2.34084
H         -2.37215        0.28741        1.46205
H         -0.96879       -0.76228        1.22351