16

O          1.40525       -0.22682       -0.53276
O          0.68040       -1.44413       -0.18222
C         -0.73982       -1.16204       -0.15693
C         -1.26529       -0.70582        1.25391
O         -0.92391        0.54307        1.51992
C         -2.81416       -0.77830        1.27946
C         -1.22541       -0.36029       -1.37033
H          1.63580        0.00838        0.38943
H         -1.16634       -2.16280       -0.30227
H         -0.93206       -1.49725        1.94648
H         -3.15334       -1.79588        1.04990
H         -3.22116       -0.51898        2.26542
H         -3.28730       -0.10801        0.54983
H         -0.79611       -0.77004       -2.29031
H         -2.31543       -0.40782       -1.46299
H         -0.93466        0.69306       -1.31791