21

O          1.17829        0.37602       -0.01051
O          0.68731        0.45100       -1.37897
C         -0.73357        0.34192       -1.31729
C         -1.16232       -1.10619       -1.08662
C         -0.92909       -1.61097        0.34350
C         -1.46672       -0.69119        1.44238
C         -2.98339       -0.66422        1.53336
O         -3.55225       -1.06031        2.55858
C         -3.79794       -0.12349        0.38209
H          2.02572       -0.05582       -0.22642
H         -1.13505        1.04304       -0.57766
H         -1.12831        0.68018       -2.28072
H         -2.21212       -1.21639       -1.34918
H         -0.64276       -1.76667       -1.78867
H         -1.36922       -2.60915        0.45510
H          0.14880       -1.75597        0.48981
H         -1.08530       -1.05439        2.40652
H         -1.09539        0.33540        1.36931
H         -3.43102        0.85777        0.07109
H         -3.81042       -0.81836       -0.45511
H         -4.84266       -0.02578        0.68418