23

O          1.12185        1.28900       -0.29871
O          0.39878        0.71212       -1.42519
C         -0.98236        0.70378       -1.06833
C         -1.58709       -0.69390       -0.84278
C         -0.94881       -1.65899        0.11735
H         -1.56232       -2.49902        0.43670
C          0.53362       -1.87015        0.18575
C          1.17501       -2.47180       -1.08340
O          0.88814       -1.71978       -2.26882
O         -0.07325       -2.48553       -3.04423
C          2.69474       -2.42231       -0.97527
H          1.88577        0.67222       -0.34431
H         -1.17753        1.36241       -0.21881
H         -1.49862        1.13673       -1.93423
H         -2.62716       -0.55144       -0.52386
H         -1.67337       -1.20561       -1.80172
H          1.00887       -0.93703        0.48304
H          0.73862       -2.54430        1.02924
H          0.84711       -3.50995       -1.19827
H         -0.54402       -1.70074       -3.40633
H          3.05989       -2.88173       -0.05452
H          3.14076       -2.93530       -1.83417
H          3.05145       -1.38554       -1.02135