18

O          1.27012       -0.66281        0.57956
O          0.53204        0.09582        1.57963
C         -0.87138       -0.10816        1.32496
C         -1.50817        1.13631        0.64397
C         -1.10980        1.28497       -0.87302
O         -1.71634        0.33350       -1.76958
O         -0.85817       -0.83826       -1.81365
C         -1.50026        2.66313       -1.42357
O         -2.82854        1.02590        0.76777
H          1.59540        0.11783        0.09260
H         -1.04310       -1.04485        0.78428
H         -1.31315       -0.25145        2.32111
H         -1.00413        1.98921        1.12701
H         -0.01953        1.20548       -0.96660
H         -1.40723       -1.35699       -1.19465
H         -1.10508        3.47488       -0.80606
H         -1.11506        2.78308       -2.44258
H         -2.58875        2.76766       -1.49529