23

O          1.12840        0.23108       -0.53730
O          0.58739       -1.02214       -1.04440
C         -0.83476       -0.93504       -0.93829
C         -1.31472       -1.36062        0.44820
C         -0.91621       -0.39118        1.56888
C         -1.49690        1.02124        1.39627
C         -3.03257        1.06008        1.41185
O         -3.53585        0.70239        2.70271
O         -3.65017       -0.74825        2.73875
C         -3.54508        2.43852        1.16299
H         -4.57258        2.54999        0.83472
H         -3.07282        3.28252        1.65076
H          1.87991       -0.16852       -0.05781
H         -1.18798        0.06256       -1.22180
H         -1.24608       -1.62821       -1.67966
H         -2.40340       -1.48073        0.42460
H         -0.90209       -2.34803        0.68569
H         -1.22500       -0.80453        2.53472
H          0.17501       -0.33091        1.63802
H         -1.10251        1.64493        2.20855
H         -1.12180        1.46432        0.46547
H         -3.45669        0.41092        0.63707
H         -3.36674       -0.84499        3.66916