20

O          1.15627        0.48336        0.06495
O          0.57359        0.94776       -1.18257
C         -0.84960        0.93637       -1.00846
C         -1.44124       -0.46379       -1.26740
C         -0.99225       -1.53751       -0.23933
O         -1.59997       -1.37080        1.04829
O         -1.00545       -0.26904        1.67386
C         -1.42392       -2.93938       -0.67933
C         -2.97059       -0.37775       -1.34496
H          2.03705        0.26002       -0.29582
H         -1.14228        1.37148       -0.04801
H         -1.23599        1.62694       -1.76935
H         -1.06708       -0.77673       -2.25268
H          0.09858       -1.57563       -0.15177
H         -1.06748       -3.18061       -1.68428
H         -1.03076       -3.68374        0.02178
H         -2.51297       -3.04965       -0.64682
H         -3.29222        0.37477       -2.07121
H         -3.40230       -1.33044       -1.66778
H         -3.40461       -0.12221       -0.37326