18

O          1.19737       -0.00982       -0.24373
O          0.68975       -0.47205        1.03811
C         -0.71129       -0.64736        0.86522
C         -1.48065        0.61436        1.03891
O         -1.09467        1.88968        0.53515
C         -2.10712        1.21806       -0.21296
C         -1.64740        1.02187       -1.63034
C         -3.54248        1.59809       -0.08308
H          2.12397        0.08940        0.04221
H         -0.93746       -1.14148       -0.08749
H         -1.04283       -1.34750        1.64058
H         -1.91835        0.67661        2.03045
H         -2.09687        0.12104       -2.05301
H         -1.96561        1.87905       -2.23470
H         -0.56051        0.95354       -1.72962
H         -3.93593        1.43150        0.92449
H         -3.71479        2.63376       -0.37932
H         -4.12383        0.95404       -0.75449