12

O          1.10733        0.24339        0.02096
O          0.65605       -0.62486       -1.06303
C         -0.77537       -0.59600       -1.03987
C         -1.31659       -1.27974        0.19194
C         -2.08727       -0.64647        1.08936
O         -0.97117       -2.60828        0.34184
H          2.04711       -0.00393       -0.04028
H         -1.11246        0.44458       -1.11560
H         -1.13335       -1.11848       -1.93361
H         -2.46585       -1.12984        1.98046
H         -2.34475        0.39900        0.94727
H         -1.30410       -2.92261        1.19896