23

O          1.26019        0.56293       -0.37679
O          0.72512       -0.33866       -1.38770
C         -0.69756       -0.31613       -1.25782
C         -1.17681       -1.29512       -0.18708
C         -0.77599       -0.89623        1.23958
C         -1.33770        0.46721        1.67079
C         -2.87293        0.52726        1.67956
O         -3.39207       -0.28820        2.73373
O         -3.51153       -1.59011        2.21537
C         -3.34736        1.95095        1.94484
H          2.02204       -0.00131       -0.13180
H         -1.05718        0.70509       -1.08986
H         -1.10521       -0.62693       -2.22559
H         -2.26594       -1.39255       -0.25797
H         -0.76731       -2.29002       -0.39532
H         -1.09641       -1.67408        1.94070
H          0.31517       -0.88569        1.33017
H         -0.95630        0.68902        2.67494
H         -0.94388        1.25220        1.01526
H         -3.29614        0.22443        0.71410
H         -2.98138        2.64428        1.18089
H         -4.44215        1.98659        1.94861
H         -3.01353        2.29660        2.92841