17

O          1.13875       -0.19632        0.34450
O          0.56281        0.92516        1.06749
C         -0.85880        0.76967        1.00654
C         -1.42377        1.29348       -0.31518
C         -1.01977        0.48720       -1.56107
O         -1.67355       -0.78594       -1.60812
O         -1.02447       -1.64060       -0.70899
C         -1.48950        1.20461       -2.82548
H          2.01943        0.20116        0.19754
H         -1.16582       -0.25407        1.23932
H         -1.26063        1.38951        1.81762
H         -2.51793        1.31207       -0.23787
H         -1.08157        2.32942       -0.43647
H          0.06667        0.38286       -1.64882
H         -1.10307        2.22567       -2.88712
H         -1.15165        0.65152       -3.70953
H         -2.58383        1.23056       -2.87255