20

O          1.24402       -0.36513       -0.43622
O          0.66234       -1.43654        0.35038
C         -0.76142       -1.34842        0.20835
C         -1.38806       -0.35069        1.19833
C         -0.95283        1.10894        0.94923
O         -1.52085        1.67725       -0.23922
O         -0.77096        1.15889       -1.36953
C         -2.93224       -0.39788        1.19970
C         -3.56084       -1.73959        1.38893
H         -4.59544       -1.78606        1.71433
H         -3.18235       -2.61355        0.87255
H          2.08916       -0.31722        0.05120
H         -1.06147       -1.17325       -0.82993
H         -1.10603       -2.35947        0.44551
H         -1.02401       -0.62390        2.19950
H         -1.33876        1.72471        1.77174
H          0.13217        1.24760        0.97250
H         -1.49076        1.22203       -2.02596
H         -3.29585        0.25402        2.00600
H         -3.32290        0.01571        0.26386