17

O          1.17668       -0.51552        0.18559
O          0.60753        0.16919        1.33625
C         -0.81521        0.09096        1.19817
C         -1.39812        1.31302        0.47348
O         -1.06276        1.27436       -0.92966
O          0.24608        1.89229       -1.07917
C         -2.93997        1.31265        0.50619
C         -3.59685        1.27852        1.84970
H         -4.62638        1.61236        1.93404
H         -3.22437        0.65109        2.65095
H          1.88270        0.13917        0.02858
H         -1.09864       -0.84441        0.70234
H         -1.18859        0.04798        2.22463
H         -1.01216        2.24354        0.90978
H          0.59871        1.21858       -1.69005
H         -3.29599        2.20459       -0.02624
H         -3.31103        0.46177       -0.07946