20

O          1.19464        0.15885       -0.53842
O          0.57975       -0.97254       -1.21376
C         -0.84219       -0.79030       -1.14042
C         -1.43060       -1.32865        0.17942
C         -0.95920       -0.56843        1.44582
O         -1.52146        0.75550        1.52684
O         -0.78069        1.60472        0.61190
C         -1.41345       -1.28810        2.72156
C         -2.94265       -1.35967        0.13103
H         -3.46658       -2.06761        0.76772
H         -3.46804       -0.43850       -0.10506
H          2.02255       -0.29471       -0.28597
H         -1.12787        0.24420       -1.35952
H         -1.24560       -1.38381       -1.97168
H         -1.08118       -2.36756        0.26730
H          0.13305       -0.51750        1.49438
H         -1.50704        2.23082        0.42570
H         -1.06410       -2.32488        2.74401
H         -1.02527       -0.76767        3.60291
H         -2.50431       -1.28036        2.82353