20

O          1.30719        0.54462       -0.28026
O          0.68380        0.15102       -1.53403
C         -0.73549        0.26390       -1.34832
C         -1.33120       -0.99075       -0.68027
C         -0.78362       -1.31384        0.72692
O         -1.16984       -0.42476        1.78521
O         -0.63833        0.89387        1.49826
C         -2.84778       -1.00836       -0.65040
H         -3.32401       -1.98709       -0.67941
C         -3.57766        0.06880        0.08028
H          2.13756        0.04236       -0.40017
H         -0.99154        1.20032       -0.84390
H         -1.15248        0.35761       -2.36032
H         -1.02589       -1.83235       -1.32175
H         -1.20035       -2.28597        1.02198
H          0.30068       -1.45136        0.72980
H         -1.39341        1.40261        1.84799
H         -3.42875       -0.03562        1.15760
H         -3.23297        1.05758       -0.23050
H         -4.65167        0.00122       -0.10190