23

O          1.20552        0.54143        0.12958
O          0.69242        0.97595       -1.16193
C         -0.73522        0.92456       -1.08139
C         -1.25694       -0.48196       -1.37947
C         -0.92378       -1.51288       -0.29524
C         -1.36724       -1.11820        1.12677
O         -2.80498       -1.18134        1.22008
O         -3.33036        0.05642        0.65918
C         -0.82226       -2.09128        2.19192
C          0.66580       -2.24884        2.25008
H          1.12490       -2.63225        3.15401
H          1.26755       -2.26972        1.34971
H          2.03920        0.16279       -0.21243
H         -1.08064        1.32487       -0.12321
H         -1.11549        1.60788       -1.84744
H         -2.33931       -0.45446       -1.54135
H         -0.81279       -0.83233       -2.31964
H         -1.39501       -2.46572       -0.56709
H          0.15460       -1.68571       -0.33919
H         -1.03477       -0.11261        1.40508
H         -4.16044       -0.32927        0.31779
H         -1.16897       -1.74928        3.17601
H         -1.27399       -3.07868        2.04575