14

O          1.23309       -0.14213        0.39527
O          0.68229        1.20728        0.40487
C         -0.74301        1.07121        0.38533
C         -1.28149        0.84899       -1.03172
C         -0.88593       -0.48163       -1.60878
C         -1.74039       -1.46834       -1.91610
H          2.08984        0.09703       -0.00246
H         -1.06900        0.28821        1.08066
H         -1.14243        2.01997        0.76263
H         -2.37457        0.93664       -1.00809
H         -0.90455        1.63636       -1.69493
H          0.17582       -0.65372       -1.76306
H         -1.36491       -2.41588       -2.28741
H         -2.80973       -1.35615       -1.78836