23

O          1.10482       -0.34913       -0.42602
O          0.59968       -1.20965        0.63450
C         -0.82703       -1.12762        0.59063
C         -1.33118        0.10223        1.34073
C         -1.02700        1.42962        0.63953
C         -1.54381        1.51973       -0.80911
O         -2.97727        1.55192       -0.84655
O         -3.45862        0.18923       -0.70600
C         -1.12000        2.79617       -1.47272
H         -1.08307        2.78661       -2.55890
C         -1.43600        4.08824       -0.80260
H          1.92648       -0.08851        0.03603
H         -1.18245       -1.18404       -0.44268
H         -1.20924       -2.02274        1.09201
H         -2.41138        0.02205        1.50455
H         -0.87276        0.13105        2.33692
H         -1.49046        2.21520        1.24940
H          0.05377        1.61743        0.67107
H         -1.17047        0.69804       -1.42993
H         -4.30659        0.43353       -0.28535
H         -2.52055        4.20914       -0.72734
H         -1.00570        4.12678        0.20139
H         -1.02883        4.92494       -1.37314