17

O          1.18847        0.34037       -0.54512
O          0.55084       -0.83317       -1.13130
C         -0.85603       -0.65922       -0.94520
C         -1.36744       -1.34573        0.33593
O         -1.00731       -0.57135        1.49456
O          0.36340       -0.76610        1.75284
C         -2.90424       -1.32321        0.31536
C         -0.90346       -2.80461        0.45935
H          1.31237       -0.03629        0.35433
H         -1.09999        0.41079       -0.94540
H         -1.33544       -1.10325       -1.82489
H         -3.30706       -1.88866       -0.53159
H         -3.31220       -1.74815        1.23994
H         -3.28000       -0.29506        0.25539
H         -1.28589       -3.41479       -0.36568
H          0.18819       -2.89194        0.45911
H         -1.24920       -3.24016        1.40391