15

O          1.15835       -0.30433        0.96252
O          0.49194        0.94639        1.27918
C         -0.90530        0.72421        1.08780
C         -1.36613        1.33419       -0.22193
C         -0.97768        0.53888       -1.45834
O         -1.84325        0.00429       -2.14833
C          0.47346        0.44952       -1.86974
H          1.90542        0.09516        0.47740
H         -1.17126       -0.33608        1.17429
H         -1.40210        1.24698        1.91437
H         -2.46369        1.37489       -0.20953
H         -1.00659        2.36189       -0.33398
H          0.95989        1.42559       -1.80642
H          1.00436       -0.29146       -1.28031
H          0.53726        0.09186       -2.90107