20

O          1.15250        0.39620        0.16779
O          0.63339        0.73283       -1.15097
C         -0.79443        0.66535       -1.07147
C         -1.29039       -0.77611       -1.23107
C         -0.94266       -1.69118       -0.03651
C         -1.44886       -1.15370        1.31704
O         -2.86775       -1.23510        1.44630
O         -3.40140       -0.13952        0.74497
C         -1.44931       -3.11566       -0.27215
H          1.98394       -0.00796       -0.15329
H         -1.14956        1.15035       -0.15712
H         -1.18002        1.26686       -1.90167
H         -2.37289       -0.77183       -1.40321
H         -0.84008       -1.19868       -2.13851
H          0.14893       -1.76873        0.01720
H         -1.02952       -1.77456        2.11658
H         -1.10575       -0.13570        1.53037
H         -1.06252       -3.51658       -1.21450
H         -1.10237       -3.77292        0.53342
H         -2.54189       -3.16224       -0.30286