20

O          1.08260       -0.08212       -0.45735
O          0.54280       -1.32409        0.07968
C         -0.88256       -1.21397        0.04378
C         -1.42249       -0.43719        1.24618
C         -1.00746        1.03693        1.28045
C         -1.46381        1.76760        0.05250
C         -2.26215        2.84661        0.07371
C         -2.74486        3.51499       -1.16747
H          1.91604       -0.10132        0.04855
H         -1.21693       -0.79920       -0.91406
H         -1.27502       -2.23565        0.08172
H         -2.51831       -0.50250        1.25260
H         -1.06610       -0.91454        2.16706
H         -1.42440        1.50119        2.18207
H          0.07915        1.12904        1.37893
H         -1.12909        1.38689       -0.90991
H         -2.58630        3.25628        1.02436
H         -3.83872        3.51694       -1.17862
H         -2.38857        4.54783       -1.19622
H         -2.39962        3.00653       -2.07426