18

O          1.13351       -0.30072       -0.55635
O          0.55855       -1.29593        0.33719
C         -0.86361       -1.13168        0.27835
C         -1.40248       -0.10654        1.31215
C         -0.94809        1.30959        1.03958
H         -1.49954        2.14445        1.46118
H          0.08640        1.50316        0.77850
C         -2.94147       -0.13562        1.27021
C         -0.91796       -0.47282        2.72181
H          1.92685       -0.12477       -0.01464
H         -1.17961       -0.89728       -0.74615
H         -1.27970       -2.12105        0.51035
H         -3.32806       -1.12213        1.55073
H         -3.37743        0.59558        1.96146
H         -3.31866        0.09477        0.26624
H         -1.27059       -1.46721        3.01577
H          0.17673       -0.47403        2.78119
H         -1.28411        0.24453        3.46577