26

O          1.15900        0.64908        0.17331
O          0.61933        1.07904       -1.10895
C         -0.80288        0.97212       -1.02012
C         -1.27852       -0.43716       -1.37439
C         -0.87572       -1.51126       -0.35466
C         -1.41910       -1.24663        1.05459
C         -2.95374       -1.17284        1.14124
O         -3.51515       -2.47807        0.90326
O         -3.62836       -2.64702       -0.53863
C         -3.43272       -0.75395        2.54541
C         -2.93894        0.56503        3.05350
H         -3.48568        1.05927        3.84940
H         -1.91580        0.88727        2.89533
H          1.91323        0.14867       -0.19618
H         -1.16046        1.31017       -0.04094
H         -1.21421        1.67432       -1.75312
H         -2.36766       -0.42223       -1.49178
H         -0.86847       -0.72163       -2.34987
H         -1.20200       -2.49540       -0.70518
H          0.21627       -1.58407       -0.30754
H         -1.05408       -2.03686        1.72113
H         -0.97343       -0.31685        1.41602
H         -3.36760       -0.45674        0.42116
H         -3.33688       -3.57939       -0.55606
H         -4.53017       -0.72696        2.53649
H         -3.16271       -1.53284        3.26771