20

O          1.29293       -0.12244       -0.43975
O          0.72064       -1.42794       -0.16264
C         -0.70726       -1.27760       -0.18858
C         -1.26793       -0.64415        1.10965
C         -0.83419        0.83155        1.31157
O         -1.44622        1.76006        0.41139
O         -0.87340        1.58325       -0.85445
C         -2.80850       -0.69291        1.09275
C         -0.76650       -1.48886        2.30137
H          2.18379       -0.30869       -0.08341
H         -1.03022       -0.77290       -1.10348
H         -1.09667       -2.30098       -0.27508
H         -1.18482        1.15265        2.30047
H          0.25089        0.97039        1.34658
H         -3.17968       -1.71770        0.99001
H         -3.21665       -0.28704        2.02701
H         -3.22261       -0.10310        0.26827
H         -1.10572       -2.52841        2.21051
H          0.32745       -1.50286        2.35601
H         -1.14146       -1.10306        3.25484