14

O          1.10820       -0.11826        0.58905
O          0.50831        1.20803        0.66355
C         -0.91028        1.01971        0.58822
C         -1.42330        1.02987       -0.86036
O         -1.03637       -0.15759       -1.56326
O          0.27209        0.09590       -2.14889
C         -2.91928        1.01602       -0.90642
H         -3.41077        1.31739       -1.82487
H         -3.45895        0.33980       -0.25139
H          1.80324        0.12594       -0.05076
H         -1.19084        0.09981        1.11488
H         -1.35077        1.86060        1.13734
H         -1.05323        1.91548       -1.39173
H          0.62827       -0.79332       -1.96236