18

O          1.29432        0.73267       -0.61279
O          0.61258       -0.07618       -1.61294
C         -0.79022        0.02684       -1.34678
C         -1.31141       -1.28365       -0.76668
C         -1.12371       -1.43902        0.72359
C         -2.35381       -1.32182        1.56986
C          0.09547       -2.20537        1.21072
O          0.01496       -0.78254        1.30182
H          1.65740       -0.01599       -0.09805
H         -1.03486        0.89335       -0.72129
H         -1.26530        0.18268       -2.32163
H         -2.38595       -1.34584       -0.98028
H         -0.84525       -2.13296       -1.28009
H         -2.87047       -0.38063        1.35116
H         -3.04358       -2.14419        1.35371
H         -2.12797       -1.33871        2.64086
H          0.03670       -2.77711        2.12767
H          0.79734       -2.60162        0.48536