15

O          1.14006        0.38031       -0.51538
O          0.56209       -0.84251       -1.05707
C         -0.85940       -0.69709       -0.96730
C         -1.41294       -1.26364        0.35480
C         -0.93284       -0.54335        1.58597
H         -1.48357       -0.62812        2.51681
H          0.10318       -0.23446        1.66410
C         -2.94267       -1.24763        0.32230
H          1.93710       -0.04133       -0.14103
H         -1.15837        0.34434       -1.13963
H         -1.26917       -1.28390       -1.79909
H         -1.07215       -2.30166        0.45059
H         -3.32037       -1.87898       -0.48886
H         -3.36422       -1.62713        1.25996
H         -3.32939       -0.23333        0.16792