23

O          1.58205        0.33510       -0.14540
O          0.72228        1.03546        0.80920
C         -0.31828        1.68990        0.08814
C         -1.32018        1.11437       -0.92789
C         -0.93925       -0.21574       -1.50617
C         -1.28907       -1.37414       -0.61014
H         -1.16444       -2.31290       -1.15024
C         -1.00477       -1.50742        0.89766
O          0.42162       -1.63009        1.12483
O          0.95688       -2.62266        0.17846
C         -1.61749       -0.43362        1.85133
H          2.36441        0.28262        0.37415
H          0.29018        2.20445       -0.64412
H         -0.83082        2.38506        0.74444
H         -2.38103        1.14870       -0.62741
H         -1.30833        1.87714       -1.72801
H         -1.42338       -0.31738       -2.49244
H          0.12316       -0.24476       -1.76153
H         -1.41818       -2.45920        1.22915
H          1.86798       -2.28705        0.16262
H         -2.46069        0.04623        1.34396
H         -0.80504        0.07479        2.38607
H         -2.18301       -0.65178        2.76708