20

O          1.26850        0.55738        0.25366
O          0.72751        0.98735       -1.02480
C         -0.69808        0.87153       -0.93806
C         -1.24749       -0.52561       -1.33654
O         -0.94815       -1.50471       -0.30834
O          0.41099       -2.00680       -0.50552
C         -2.80115       -0.47612       -1.36250
C         -3.41415        0.49125       -2.37018
C         -0.74098       -1.01420       -2.67043
H          0.29199       -0.82070       -2.93900
H         -1.21369       -1.87799       -3.12481
H          1.96172       -0.01197       -0.12896
H         -1.02842        1.15149        0.07035
H         -1.07619        1.63467       -1.62508
H          0.66251       -1.98229        0.43616
H         -3.19368       -1.48344       -1.56199
H         -3.17301       -0.22522       -0.35946
H         -3.08778        0.26968       -3.39043
H         -4.50596        0.41757       -2.34532
H         -3.15837        1.52961       -2.14229