23

O          1.07612        0.39876        0.20222
O          0.55169        0.74655       -1.11175
C         -0.87434        0.69492       -1.02559
C         -1.39291       -0.73844       -1.14772
C         -1.01519       -1.63237        0.04255
C         -1.47955       -1.06820        1.39080
C         -2.97396       -1.01175        1.44749
C         -3.70332       -1.69470        2.34397
C         -5.19109       -1.69198        2.33481
H          1.91628        0.02056       -0.11701
H         -1.22755        1.20244       -0.12082
H         -1.26167        1.28105       -1.86507
H         -2.48368       -0.71745       -1.26057
H         -0.99904       -1.19302       -2.06379
H         -1.44420       -2.63178       -0.10696
H          0.06923       -1.78615        0.06155
H         -1.07390       -1.68722        2.19856
H         -1.08892       -0.06128        1.56818
H         -3.48438       -0.40639        0.70344
H         -3.20331       -2.29322        3.09850
H         -5.55595       -2.71728        2.22482
H         -5.56671       -1.27872        3.27386
H         -5.59712       -1.09866        1.50856