23

O          1.10946        0.06496       -0.50236
O          0.59671       -1.29020       -0.35820
C         -0.83179       -1.19910       -0.34229
C         -1.34788       -0.85032        1.05496
C         -1.00984        0.57659        1.50594
C         -1.46139        1.68133        0.53018
O         -2.88931        1.81998        0.58367
O         -3.42747        0.80956       -0.23425
C         -0.88004        3.05116        0.90850
C          0.64021        3.10854        0.87062
H          1.95536       -0.09773       -0.03747
H         -1.17985       -0.51307       -1.12041
H         -1.21065       -2.18776       -0.62025
H         -2.43037       -1.00679        1.10339
H         -0.90393       -1.54361        1.78018
H         -1.47462        0.74914        2.48496
H          0.06927        0.61370        1.67426
H         -1.15393        1.48097       -0.50192
H         -1.27796        3.80270        0.21392
H         -1.24120        3.34428        1.90102
H          1.01793        2.85235       -0.12419
H          0.98634        4.11607        1.11746
H          1.09451        2.42880        1.59639