24

O          1.24050        0.56246        0.40477
O          0.57271        1.36887       -0.61372
C         -0.83238        1.19094       -0.42753
C         -1.41056        0.03177       -1.25420
C         -0.62926       -1.27561       -1.03170
C         -1.37184       -2.58358       -1.32368
C         -1.55565       -2.83609       -2.81193
C         -0.22377       -2.68935       -3.53929
C          0.44603       -1.37310       -3.17942
O          0.61010       -1.25609       -1.76179
H          1.69360       -0.03977       -0.22421
H         -1.06805        1.06697        0.63550
H         -1.30356        2.12457       -0.75310
H         -2.46918       -0.08999       -0.99911
H         -1.37926        0.34202       -2.30250
H         -0.37263       -1.32496        0.03308
H         -0.75568       -3.40518       -0.92953
H         -2.32977       -2.62987       -0.79488
H         -2.28797       -2.12903       -3.21705
H         -1.95537       -3.84433       -2.97208
H         -0.37261       -2.76122       -4.62139
H          0.43564       -3.51235       -3.23806
H         -0.12188       -0.52908       -3.58285
H          1.43975       -1.31535       -3.63220