15

O          1.15010        0.32214        0.40377
O          0.58183        1.41262       -0.38147
C         -0.84361        1.28301       -0.30480
C         -1.37835        0.24808       -1.30676
C         -0.93026       -1.12934       -0.91162
C         -1.22830       -2.44165       -1.60186
O         -0.04217       -1.69672       -1.89407
H          1.96523        0.22261       -0.12847
H         -1.14913        1.04711        0.72143
H         -1.25331        2.27038       -0.54515
H         -2.47364        0.29618       -1.32278
H         -1.02190        0.50652       -2.31173
H         -0.71697       -1.22494        0.14264
H         -1.06719       -3.35094       -1.03206
H         -2.02344       -2.49532       -2.32660