26

O          1.19462       -0.57336        1.24339
O          0.47018        0.68869        1.33138
C         -0.91259        0.38612        1.15118
C         -1.53290        0.92151       -0.15212
C         -0.91192        0.59694       -1.47913
H         -1.52843        0.75891       -2.36073
C          0.56644        0.63065       -1.70441
C          1.23564        2.01853       -1.56999
O          0.95180        2.65477       -0.31490
O         -0.00230        3.71964       -0.57282
C          2.76566        1.90756       -1.57501
C          3.32882        1.14249       -2.75384
H          1.95578       -0.21641        0.73389
H         -1.10429       -0.68255        1.27152
H         -1.42135        0.89949        1.97620
H         -2.57421        0.57854       -0.18506
H         -1.61179        2.00720       -0.09413
H          1.04046       -0.11305       -1.06578
H          0.74158        0.25311       -2.72093
H          0.90853        2.65604       -2.39841
H         -0.47128        3.63133        0.28811
H          3.18451        2.92184       -1.55809
H          3.10633        1.44090       -0.64067
H          2.97099        1.56561       -3.69615
H          4.42124        1.18727       -2.74092
H          3.04466        0.08643       -2.71232