20

O          0.79119        0.68404       -1.31502
O         -0.34531        0.85917       -2.15265
C         -1.47567        0.52641       -1.35974
C         -1.48830       -0.96292       -0.99259
C         -0.74679       -1.43570        0.26422
H         -1.25238       -2.33861        0.63908
C          0.77158       -1.57492        0.49757
O          1.31899       -2.29129       -0.62592
O          0.72898       -3.63992       -0.58255
C          1.71731       -0.39274        0.89643
H          0.95204       -0.25711       -1.52398
H         -1.57051        1.17204       -0.47934
H         -2.30904        0.76048       -2.03095
H         -2.55114       -1.21999       -0.84971
H         -1.15174       -1.56034       -1.84798
H          0.86732       -2.24466        1.36704
H          1.03432       -3.93723       -1.44303
H          1.26855        0.27559        1.63691
H          2.66653       -0.78488        1.28662
H          2.13462        0.23600        0.10610