18

O          1.19985        0.36400        0.04842
O          0.68325        0.22872       -1.30682
C         -0.74230        0.21558       -1.21687
C         -1.26759       -1.15642       -0.78932
C         -0.89083       -1.54387        0.64817
C         -1.35469       -0.51928        1.68384
C         -2.85735       -0.47199        1.73499
O         -3.50941       -0.72337        2.74734
H          2.05962       -0.06445       -0.12264
H         -1.09697        1.02499       -0.56885
H         -1.12605        0.44539       -2.21602
H         -2.35876       -1.17344       -0.89549
H         -0.88038       -1.92244       -1.47126
H         -1.32036       -2.52565        0.88138
H          0.19410       -1.68074        0.72082
H         -0.96921       -0.78058        2.67357
H         -0.99601        0.49118        1.46695
H         -3.36641       -0.17225        0.80406