18

O          1.19573        0.35556       -0.14124
O          0.63936       -0.49285       -1.18959
C         -0.78259       -0.43353       -1.03435
C         -1.30642       -1.47627       -0.04311
C         -1.19365       -2.90237       -0.55762
C         -1.12759       -3.69874        0.71967
C         -0.33357       -2.78701        1.62774
O         -0.61635       -1.44196        1.22072
H          1.97612       -0.20093        0.04250
H         -1.08297        0.57922       -0.74364
H         -1.21621       -0.62661       -2.02307
H         -2.35898       -1.25413        0.17209
H         -2.04214       -3.18006       -1.19060
H         -0.27526       -3.04645       -1.13744
H         -0.66961       -4.68339        0.59492
H         -2.13665       -3.83911        1.12425
H          0.74326       -2.95623        1.51896
H         -0.60013       -2.91259        2.68086