24

O          1.20382       -0.00300       -0.50864
O          0.69900       -1.36633       -0.51068
C         -0.71947       -1.27719       -0.41476
C         -1.16618       -1.07898        1.02851
C         -0.88882        0.31927        1.61548
C         -1.49882        1.47691        0.81857
C         -3.02420        1.42096        0.75904
C         -3.83834        0.37192        1.55325
C         -4.73186        1.54590        1.88962
O         -3.65144        2.47082        1.57008
H          1.96918       -0.17937        0.07580
H         -1.11569       -0.51410       -1.09343
H         -1.12017       -2.23353       -0.77028
H         -2.23057       -1.31426        1.05994
H         -0.68722       -1.82178        1.67562
H         -1.25571        0.36239        2.64830
H          0.19301        0.46824        1.69876
H         -1.16312        2.43210        1.24191
H         -1.09842        1.47187       -0.20270
H         -3.35850        1.53598       -0.28281
H         -4.28225       -0.42899        0.95969
H         -3.36878       -0.04147        2.45059
H         -5.03793        1.58962        2.93675
H         -5.58902        1.66967        1.22266