20

O          1.26511        0.04027       -0.54403
O          0.72946       -1.31308       -0.59497
C         -0.69328       -1.20289       -0.52360
C         -1.17541       -1.10859        0.92320
C         -0.77484        0.19575        1.62511
C         -1.33908        1.45158        0.94538
C         -2.86659        1.50198        0.90779
O         -3.40494        1.70590        2.21181
O         -3.51066        0.43518        2.80494
H          2.02666       -0.17460        0.03264
H         -1.05103       -0.37373       -1.14387
H         -1.10064       -2.11582       -0.97080
H         -2.26493       -1.22494        0.94262
H         -0.76702       -1.94858        1.49665
H         -1.09452        0.15932        2.67200
H          0.31626        0.26962        1.67955
H         -0.96154        2.33111        1.47951
H         -0.95791        1.52678       -0.07882
H         -3.17335        2.36125        0.30222
H         -3.30961        0.62109        0.42791