20

O          1.37753        0.51738       -0.41257
O          0.78246       -0.39565       -1.38137
C         -0.63584       -0.29502       -1.21351
C         -1.19825       -1.39390       -0.28646
O         -0.88182       -1.06788        1.08820
O          0.48668       -1.31299        1.31109
C         -2.75169       -1.37250       -0.30443
C         -3.43198       -1.69483       -1.62844
C         -0.68168       -2.79602       -0.65043
H          1.48853       -0.14373        0.30850
H         -0.89593        0.70456       -0.84303
H         -1.05198       -0.38983       -2.22018
H         -3.12210       -2.07771        0.45247
H         -3.09988       -0.38760        0.03547
H         -3.17112       -2.69344       -1.98885
H         -4.51952       -1.67036       -1.49787
H         -3.18294       -0.96537       -2.40350
H         -0.95951       -3.08159       -1.66912
H          0.40964       -2.86303       -0.58462
H         -1.07761       -3.54426        0.04558