17

O          1.31124       -0.01292        0.61323
O          0.70735        1.28117        0.31762
C         -0.70945        1.07538        0.33019
C         -1.26466        0.72032       -1.06070
O         -0.84978       -0.58616       -1.48573
O          0.46248       -0.45413       -2.09592
C         -2.76816        0.64958       -1.06594
H         -3.25998        0.82117       -2.01966
C         -3.44825       -0.27324       -0.10654
H          1.97802        0.02793       -0.09839
H         -0.95504        0.31378        1.07852
H         -1.15078        2.02133        0.66716
H         -0.93714        1.46516       -1.79770
H          0.80968       -1.29214       -1.73785
H         -3.16426       -1.30965       -0.31401
H         -3.18322       -0.03733        0.92750
H         -4.53361       -0.19000       -0.19945