12

O          1.02941       -0.23797       -0.24900
O          0.49738       -0.95383        0.90120
C         -0.92763       -0.89438        0.79079
C         -1.46537        0.44592        1.25967
C         -1.07213        1.56220        0.33092
O         -1.88500        2.21797       -0.31929
H          1.93867       -0.14424        0.09081
H         -1.24553       -1.14147       -0.22873
H         -1.31752       -1.67845        1.45091
H         -2.55885        0.41178        1.30484
H         -1.08166        0.69340        2.25442
H          0.00114        1.80691        0.28550