21

O          0.97955       -0.35569        0.06927
O          0.52152        0.42195        1.20642
C         -0.89124        0.56261        1.06901
C         -1.37161        1.40982       -0.13729
C         -2.45688        2.41895        0.27086
C         -1.84234        3.55565        1.08667
C         -0.70692        4.19686        0.29847
C          0.29643        3.14227       -0.14128
O         -0.33649        2.08929       -0.86238
H          1.83389        0.11195       -0.03121
H         -1.34948       -0.43259        1.03413
H         -1.24479        0.99810        2.00975
H         -1.82839        0.71363       -0.85284
H         -2.90589        2.85058       -0.63395
H         -3.26183        1.93033        0.83089
H         -1.44820        3.17088        2.03456
H         -2.60202        4.30057        1.34215
H         -0.20742        4.96184        0.90102
H         -1.12647        4.68799       -0.58756
H          0.83594        2.74065        0.72043
H          1.04582        3.58787       -0.80286