18

O          1.20350       -0.05476       -0.38777
O          0.67544       -1.39339       -0.16650
C         -0.75148       -1.29570       -0.18818
C         -1.30771       -0.77997        1.15014
C         -0.85614        0.64862        1.49105
C         -1.30599        1.63508        0.43939
O         -2.03534        2.59505        0.68764
C         -2.83743       -0.84672        1.16144
H          2.07075       -0.21422        0.03221
H         -1.08067       -0.69189       -1.04146
H         -1.12574       -2.30926       -0.37241
H         -0.92880       -1.43914        1.94360
H         -1.27099        0.95667        2.45728
H          0.22992        0.71546        1.59782
H         -0.95606        1.45664       -0.58997
H         -3.19440       -1.86504        0.98306
H         -3.22735       -0.51597        2.13060
H         -3.26900       -0.20083        0.38930