14

O          1.21852       -0.48964        0.48969
O          0.61093        0.63759        1.18556
C         -0.80375        0.48827        1.03589
C         -1.31314        1.23054       -0.19899
O         -0.92304        0.51577       -1.37543
O          0.29515        1.08134       -1.80024
C         -2.83776        1.28346       -0.19285
H          1.62165        0.03423       -0.23601
H         -1.06776       -0.57563        1.00656
H         -1.25141        0.91908        1.93771
H         -0.91888        2.25455       -0.22837
H         -3.21552        1.79570        0.69762
H         -3.20737        1.81065       -1.07902
H         -3.26686        0.27549       -0.22535