12

O          1.08756       -0.15974       -0.01425
O          0.63505        1.20957       -0.23654
C         -0.79430        1.14815       -0.29890
O         -1.27281        0.28215       -1.32000
C         -0.85172        0.71441       -2.61474
O         -1.25612        2.03415       -2.99279
O         -2.66281        2.05345       -2.93586
H          2.04239        0.03110       -0.06157
H         -1.17480        0.79383        0.66449
H         -1.17787        2.16344       -0.44748
H          0.24118        0.66887       -2.67923
H         -1.23882        0.00250       -3.35189