10

O          1.00204       -0.07482       -0.11791
O          0.57003       -0.73898        1.10564
C         -0.85603       -0.63913        1.13712
O         -1.35448        0.70018        1.10023
C         -0.97750        1.46341        2.14926
O         -0.31353        1.12092        3.11496
H          1.95501       -0.10317        0.08459
H         -1.25330       -1.16682        0.26298
H         -1.23253       -1.15795        2.02624
H         -1.38496        2.47713        2.01442